


                                __________________________________________
                               |                                          |
                               | NUMERICAL ELECTROMAGNETICS CODE (nec2++) |
                               | Implemented in 'C++' in Double Precision |
                               |        Version 1.7.4 [2018-05-30]        |
                               |__________________________________________|



                                -------- STRUCTURE SPECIFICATION --------
                                COORDINATES MUST BE INPUT IN
                                METERS OR BE SCALED TO METERS
                                BEFORE STRUCTURE INPUT IS ENDED
  WIRE                                                                                 SEG FIRST  LAST  TAG
   No:        X1         Y1         Z1         X2         Y2         Z2       RADIUS   No:   SEG   SEG  No:

     1      0.2498     0.0000     0.0000    -0.2498     0.0000     0.0000     0.0050    11     1    11    1

     TOTAL SEGMENTS USED: 11   SEGMENTS IN A SYMMETRIC CELL: 11   SYMMETRY FLAG: 0


                               ---------- SEGMENTATION DATA ----------
                                        COORDINATES IN METERS
                            I+ AND I- INDICATE THE SEGMENTS BEFORE AND AFTER I

   SEG    COORDINATES OF SEGM CENTER     SEGM    ORIENTATION ANGLES    WIRE    CONNECTION DATA   TAG
   No:       X         Y         Z      LENGTH     ALPHA      BETA    RADIUS    I-     I    I+   NO:
     1    0.2271    0.0000    0.0000    0.0454    0.0000  180.0000    0.0050     0     1     2     1
     2    0.1817    0.0000    0.0000    0.0454    0.0000  180.0000    0.0050     1     2     3     1
     3    0.1363    0.0000    0.0000    0.0454    0.0000  180.0000    0.0050     2     3     4     1
     4    0.0908    0.0000    0.0000    0.0454    0.0000  180.0000    0.0050     3     4     5     1
     5    0.0454    0.0000    0.0000    0.0454    0.0000  180.0000    0.0050     4     5     6     1
     6    0.0000    0.0000    0.0000    0.0454    0.0000  180.0000    0.0050     5     6     7     1
     7   -0.0454    0.0000    0.0000    0.0454    0.0000  180.0000    0.0050     6     7     8     1
     8   -0.0908    0.0000    0.0000    0.0454    0.0000  180.0000    0.0050     7     8     9     1
     9   -0.1363    0.0000    0.0000    0.0454    0.0000  180.0000    0.0050     8     9    10     1
    10   -0.1817    0.0000    0.0000    0.0454    0.0000  180.0000    0.0050     9    10    11     1
    11   -0.2271    0.0000    0.0000    0.0454    0.0000  180.0000    0.0050    10    11     0     1



*****  DATA CARD N0.   1 FR   0     1     0     0  3.00000E+02  0.00000E+00  0.00000E+00  0.00000E+00  0.00000E+00  0.00000E+00
*****  DATA CARD N0.   2 EX   0     1     6     0  1.00000E+00  0.00000E+00  0.00000E+00  0.00000E+00  0.00000E+00  0.00000E+00
*****  DATA CARD N0.   3 RP   0    37    73  1000  0.00000E+00  0.00000E+00  5.00000E+00  5.00000E+00  0.00000E+00  0.00000E+00


                               --------- FREQUENCY --------
                               FREQUENCY=  3.0000E+02 MHZ
                               WAVELENGTH= 9.9932E-01 METERS


                        APPROXIMATE INTEGRATION EMPLOYED FOR SEGMENTS
                        THAT ARE MORE THAN 1.000 WAVELENGTHS APART



                          ------ STRUCTURE IMPEDANCE LOADING ------
                                 THIS STRUCTURE IS NOT LOADED



                            -------- ANTENNA ENVIRONMENT --------
                            FREE SPACE



                             ---------- MATRIX TIMING ----------
                               FILL= 0 msec  FACTOR: 0 msec


                      ----- ANTENNA INPUT PARAMETERS -----
  TAG   SEG       VOLTAGE (VOLTS)         CURRENT (AMPS)         IMPEDANCE (OHMS)        ADMITTANCE (MHOS)     POWER
  NO.   NO.     REAL      IMAGINARY     REAL      IMAGINARY     REAL      IMAGINARY    REAL       IMAGINARY   (WATTS)
   1     6  1.0000E+00  0.0000E+00  8.2638E-03 -4.4406E-03  9.3897E+01  5.0456E+01  8.2638E-03 -4.4406E-03  4.1319E-03







                        ----- CURRENTS AND LOCATION -----
                            DISTANCES IN WAVELENGTHS 

   SEG  TAG    COORDINATES OF SEGM CENTER     SEGM    ------------- CURRENT (AMPS) -------------
   No:  No:       X         Y         Z      LENGTH     REAL      IMAGINARY    MAGN        PHASE
     1    1    0.2273    0.0000    0.0000   0.04545  1.7554E-03 -1.5052E-03  2.3124E-03  -40.613 
     2    1    0.1818    0.0000    0.0000   0.04545  4.0152E-03 -3.2734E-03  5.1804E-03  -39.189 
     3    1    0.1364    0.0000    0.0000   0.04545  5.7933E-03 -4.4446E-03  7.3019E-03  -37.495 
     4    1    0.0909    0.0000    0.0000   0.04545  7.1379E-03 -5.0707E-03  8.7556E-03  -35.390 
     5    1    0.0455    0.0000    0.0000   0.04545  7.9779E-03 -5.0472E-03  9.4404E-03  -32.319 
     6    1    0.0000    0.0000    0.0000   0.04545  8.2638E-03 -4.4406E-03  9.3813E-03  -28.252 
     7    1   -0.0455    0.0000    0.0000   0.04545  7.9779E-03 -5.0472E-03  9.4404E-03  -32.319 
     8    1   -0.0909    0.0000    0.0000   0.04545  7.1379E-03 -5.0707E-03  8.7556E-03  -35.390 
     9    1   -0.1364    0.0000    0.0000   0.04545  5.7933E-03 -4.4446E-03  7.3019E-03  -37.495 
    10    1   -0.1818    0.0000    0.0000   0.04545  4.0152E-03 -3.2734E-03  5.1804E-03  -39.189 
    11    1   -0.2273    0.0000    0.0000   0.04545  1.7554E-03 -1.5052E-03  2.3124E-03  -40.613 






                               ---------- POWER BUDGET ---------
                               INPUT POWER   =  4.1319E-03 Watts
                               RADIATED POWER=  4.1319E-03 Watts
                               STRUCTURE LOSS=  0.0000E+00 Watts
                               NETWORK LOSS  =  0.0000E+00 Watts
                               EFFICIENCY    =  100.00 Percent


                         ----- RADIATION PATTERNS -----
 ---- ANGLES -----     ----- POWER GAINS -----       ---- POLARIZATION ----   ---- E(THETA) ----    ----- E(PHI) ------
  THETA      PHI       VERTC   HORIZ   TOTAL       AXIAL      TILT  SENSE   MAGNITUDE    PHASE    MAGNITUDE     PHASE
 DEGREES   DEGREES        DB       DB       DB       RATIO   DEGREES            VOLTS/M   DEGREES     VOLTS/M   DEGREES
    0.00      0.00      2.19  -999.99     2.19      0.0000      0.00 LINEAR  6.4074E-01     55.05  0.0000E+00      0.00
    5.00      0.00      2.14  -999.99     2.14      0.0000      0.00 LINEAR  6.3701E-01     55.05  0.0000E+00      0.00
   10.00      0.00      1.99  -999.99     1.99      0.0000      0.00 LINEAR  6.2594E-01     55.07  0.0000E+00      0.00
   15.00      0.00      1.74  -999.99     1.74      0.0000      0.00 LINEAR  6.0791E-01     55.11  0.0000E+00      0.00
   20.00      0.00      1.38  -999.99     1.38      0.0000      0.00 LINEAR  5.8351E-01     55.15  0.0000E+00      0.00
   25.00      0.00      0.92  -999.99     0.92      0.0000      0.00 LINEAR  5.5350E-01     55.21  0.0000E+00      0.00
   30.00      0.00      0.36  -999.99     0.36      0.0000      0.00 LINEAR  5.1874E-01     55.27  0.0000E+00      0.00
   35.00      0.00     -0.31  -999.99    -0.31      0.0000      0.00 LINEAR  4.8019E-01     55.35  0.0000E+00      0.00
   40.00      0.00     -1.10  -999.99    -1.10      0.0000      0.00 LINEAR  4.3878E-01     55.43  0.0000E+00      0.00
   45.00      0.00     -2.00  -999.99    -2.00      0.0000      0.00 LINEAR  3.9540E-01     55.52  0.0000E+00      0.00
   50.00      0.00     -3.04  -999.99    -3.04      0.0000      0.00 LINEAR  3.5082E-01     55.61  0.0000E+00      0.00
   55.00      0.00     -4.23  -999.99    -4.23      0.0000      0.00 LINEAR  3.0572E-01     55.70  0.0000E+00      0.00
   60.00      0.00     -5.62  -999.99    -5.62      0.0000      0.00 LINEAR  2.6061E-01     55.78  0.0000E+00      0.00
   65.00      0.00     -7.26  -999.99    -7.26      0.0000      0.00 LINEAR  2.1583E-01     55.86  0.0000E+00      0.00
   70.00      0.00     -9.25  -999.99    -9.25      0.0000      0.00 LINEAR  1.7161E-01     55.93  0.0000E+00      0.00
   75.00      0.00    -11.80  -999.99   -11.80      0.0000      0.00 LINEAR  1.2800E-01     55.99  0.0000E+00      0.00
   80.00      0.00    -15.35  -999.99   -15.35      0.0000      0.00 LINEAR  8.4968E-02     56.03  0.0000E+00      0.00
   85.00      0.00    -21.40  -999.99   -21.40      0.0000      0.00 LINEAR  4.2368E-02     56.06  0.0000E+00      0.00
   90.00      0.00   -999.99  -999.99  -999.99      0.0000      0.00         2.4754E-12   -123.93  0.0000E+00      0.00
   95.00      0.00    -21.40  -999.99   -21.40      0.0000     -0.00 LINEAR  4.2368E-02   -123.94  0.0000E+00      0.00
  100.00      0.00    -15.35  -999.99   -15.35      0.0000     -0.00 LINEAR  8.4968E-02   -123.97  0.0000E+00      0.00
  105.00      0.00    -11.80  -999.99   -11.80      0.0000     -0.00 LINEAR  1.2800E-01   -124.01  0.0000E+00      0.00
  110.00      0.00     -9.25  -999.99    -9.25      0.0000     -0.00 LINEAR  1.7161E-01   -124.07  0.0000E+00      0.00
  115.00      0.00     -7.26  -999.99    -7.26      0.0000     -0.00 LINEAR  2.1583E-01   -124.14  0.0000E+00      0.00
  120.00      0.00     -5.62  -999.99    -5.62      0.0000     -0.00 LINEAR  2.6061E-01   -124.22  0.0000E+00      0.00
  125.00      0.00     -4.23  -999.99    -4.23      0.0000     -0.00 LINEAR  3.0572E-01   -124.30  0.0000E+00      0.00
  130.00      0.00     -3.04  -999.99    -3.04      0.0000     -0.00 LINEAR  3.5082E-01   -124.39  0.0000E+00      0.00
  135.00      0.00     -2.00  -999.99    -2.00      0.0000     -0.00 LINEAR  3.9540E-01   -124.48  0.0000E+00      0.00
  140.00      0.00     -1.10  -999.99    -1.10      0.0000     -0.00 LINEAR  4.3878E-01   -124.57  0.0000E+00      0.00
  145.00      0.00     -0.31  -999.99    -0.31      0.0000     -0.00 LINEAR  4.8019E-01   -124.65  0.0000E+00      0.00
  150.00      0.00      0.36  -999.99     0.36      0.0000     -0.00 LINEAR  5.1874E-01   -124.73  0.0000E+00      0.00
  155.00      0.00      0.92  -999.99     0.92      0.0000     -0.00 LINEAR  5.5350E-01   -124.79  0.0000E+00      0.00
  160.00      0.00      1.38  -999.99     1.38      0.0000     -0.00 LINEAR  5.8351E-01   -124.85  0.0000E+00      0.00
  165.00      0.00      1.74  -999.99     1.74      0.0000     -0.00 LINEAR  6.0791E-01   -124.89  0.0000E+00      0.00
  170.00      0.00      1.99  -999.99     1.99      0.0000     -0.00 LINEAR  6.2594E-01   -124.93  0.0000E+00      0.00
  175.00      0.00      2.14  -999.99     2.14      0.0000     -0.00 LINEAR  6.3701E-01   -124.95  0.0000E+00      0.00
  180.00      0.00      2.19  -999.99     2.19      0.0000     -0.00 LINEAR  6.4074E-01   -124.95  0.0000E+00      0.00
    0.00      5.00      2.16   -19.00     2.19      0.0000     -5.00 LINEAR  6.3830E-01     55.05  5.5844E-02   -124.95
    5.00      5.00      2.11   -19.02     2.14      0.0000     -5.02 LINEAR  6.3459E-01     55.05  5.5732E-02   -124.95
   10.00      5.00      1.96   -19.07     1.99      0.0000     -5.08 LINEAR  6.2360E-01     55.07  5.5399E-02   -124.93
   15.00      5.00      1.70   -19.15     1.74      0.0000     -5.18 LINEAR  6.0568E-01     55.11  5.4860E-02   -124.89
   20.00      5.00      1.35   -19.27     1.39      0.0000     -5.32 LINEAR  5.8143E-01     55.15  5.4133E-02   -124.85
   25.00      5.00      0.89   -19.41     0.93      0.0000     -5.51 LINEAR  5.5159E-01     55.21  5.3247E-02   -124.79
   30.00      5.00      0.33   -19.58     0.37      0.0000     -5.77 LINEAR  5.1704E-01     55.27  5.2233E-02   -124.73
   35.00      5.00     -0.34   -19.77    -0.29      0.0000     -6.10 LINEAR  4.7869E-01     55.35  5.1126E-02   -124.65
   40.00      5.00     -1.12   -19.97    -1.06      0.0000     -6.52 LINEAR  4.3749E-01     55.43  4.9965E-02   -124.57
   45.00      5.00     -2.02   -20.17    -1.96      0.0000     -7.05 LINEAR  3.9431E-01     55.51  4.8787E-02   -124.49
   50.00      5.00     -3.06   -20.38    -2.98      0.0000     -7.75 LINEAR  3.4993E-01     55.60  4.7628E-02   -124.40
   55.00      5.00     -4.25   -20.59    -4.15      0.0000     -8.67 LINEAR  3.0500E-01     55.69  4.6522E-02   -124.31
   60.00      5.00     -5.64   -20.78    -5.51      0.0000     -9.92 LINEAR  2.6004E-01     55.78  4.5500E-02   -124.22
   65.00      5.00     -7.28   -20.96    -7.09      0.0000    -11.70 LINEAR  2.1540E-01     55.85  4.4590E-02   -124.15
   70.00      5.00     -9.27   -21.11    -8.99      0.0000    -14.35 LINEAR  1.7128E-01     55.92  4.3815E-02   -124.08
   75.00      5.00    -11.81   -21.23   -11.34      0.0000    -18.68 LINEAR  1.2778E-01     55.98  4.3192E-02   -124.02
   80.00      5.00    -15.37   -21.32   -14.39      0.0000    -26.74 LINEAR  8.4826E-02     56.02  4.2737E-02   -123.98
   85.00      5.00    -21.41   -21.38   -18.39      0.0000    -45.11 LINEAR  4.2299E-02     56.05  4.2461E-02   -123.95
   90.00      5.00   -999.99   -21.40   -21.40      0.0000     90.00 LINEAR  2.4714E-12   -123.94  4.2368E-02   -123.94
   95.00      5.00    -21.41   -21.38   -18.39      0.0000     45.11 LINEAR  4.2299E-02   -123.95  4.2461E-02   -123.95
  100.00      5.00    -15.37   -21.32   -14.39      0.0000     26.74 LINEAR  8.4826E-02   -123.98  4.2737E-02   -123.98
  105.00      5.00    -11.81   -21.23   -11.34      0.0000     18.68 LINEAR  1.2778E-01   -124.02  4.3192E-02   -124.02
  110.00      5.00     -9.27   -21.11    -8.99      0.0000     14.35 LINEAR  1.7128E-01   -124.08  4.3815E-02   -124.08
  115.00      5.00     -7.28   -20.96    -7.09      0.0000     11.70 LINEAR  2.1540E-01   -124.15  4.4590E-02   -124.15
  120.00      5.00     -5.64   -20.78    -5.51      0.0000      9.92 LINEAR  2.6004E-01   -124.22  4.5500E-02   -124.22
  125.00      5.00     -4.25   -20.59    -4.15      0.0000      8.67 LINEAR  3.0500E-01   -124.31  4.6522E-02   -124.31
  130.00      5.00     -3.06   -20.38    -2.98      0.0000      7.75 LINEAR  3.4993E-01   -124.40  4.7628E-02   -124.40
  135.00      5.00     -2.02   -20.17    -1.96      0.0000      7.05 LINEAR  3.9431E-01   -124.49  4.8787E-02   -124.49
  140.00      5.00     -1.12   -19.97    -1.06      0.0000      6.52 LINEAR  4.3749E-01   -124.57  4.9965E-02   -124.57
  145.00      5.00     -0.34   -19.77    -0.29      0.0000      6.10 LINEAR  4.7869E-01   -124.65  5.1126E-02   -124.65
  150.00      5.00      0.33   -19.58     0.37      0.0000      5.77 LINEAR  5.1704E-01   -124.73  5.2233E-02   -124.73
  155.00      5.00      0.89   -19.41     0.93      0.0000      5.51 LINEAR  5.5159E-01   -124.79  5.3247E-02   -124.79
  160.00      5.00      1.35   -19.27     1.39      0.0000      5.32 LINEAR  5.8143E-01   -124.85  5.4133E-02   -124.85
  165.00      5.00      1.70   -19.15     1.74      0.0000      5.18 LINEAR  6.0568E-01   -124.89  5.4860E-02   -124.89
  170.00      5.00      1.96   -19.07     1.99      0.0000      5.08 LINEAR  6.2360E-01   -124.93  5.5399E-02   -124.93
  175.00      5.00      2.11   -19.02     2.14      0.0000      5.02 LINEAR  6.3459E-01   -124.95  5.5732E-02   -124.95
  180.00      5.00      2.16   -19.00     2.19      0.0000      5.00 LINEAR  6.3830E-01   -124.95  5.5844E-02   -124.95
    0.00     10.00      2.06   -13.01     2.19      0.0000    -10.00 LINEAR  6.3100E-01     55.05  1.1126E-01   -124.95
    5.00     10.00      2.01   -13.03     2.14      0.0000    -10.04 LINEAR  6.2737E-01     55.05  1.1104E-01   -124.95
   10.00     10.00      1.86   -13.08     2.00      0.0000    -10.15 LINEAR  6.1658E-01     55.07  1.1040E-01   -124.93
   15.00     10.00      1.61   -13.16     1.75      0.0000    -10.35 LINEAR  5.9900E-01     55.10  1.0935E-01   -124.90
   20.00     10.00      1.26   -13.28     1.41      0.0000    -10.63 LINEAR  5.7519E-01     55.15  1.0793E-01   -124.85
   25.00     10.00      0.80   -13.42     0.96      0.0000    -11.01 LINEAR  5.4588E-01     55.20  1.0620E-01   -124.80
   30.00     10.00      0.24   -13.58     0.42      0.0000    -11.51 LINEAR  5.1191E-01     55.27  1.0423E-01   -124.73
   35.00     10.00     -0.42   -13.76    -0.22      0.0000    -12.15 LINEAR  4.7419E-01     55.34  1.0207E-01   -124.66
   40.00     10.00     -1.20   -13.96    -0.97      0.0000    -12.96 LINEAR  4.3361E-01     55.42  9.9807E-02   -124.58
   45.00     10.00     -2.10   -14.16    -1.83      0.0000    -14.00 LINEAR  3.9103E-01     55.50  9.7508E-02   -124.50
   50.00     10.00     -3.13   -14.36    -2.81      0.0000    -15.34 LINEAR  3.4721E-01     55.59  9.5245E-02   -124.41
   55.00     10.00     -4.32   -14.56    -3.92      0.0000    -17.09 LINEAR  3.0280E-01     55.67  9.3086E-02   -124.33
   60.00     10.00     -5.70   -14.75    -5.19      0.0000    -19.43 LINEAR  2.5830E-01     55.76  9.1091E-02   -124.24
   65.00     10.00     -7.33   -14.92    -6.63      0.0000    -22.65 LINEAR  2.1406E-01     55.83  8.9313E-02   -124.17
   70.00     10.00     -9.32   -15.07    -8.29      0.0000    -27.27 LINEAR  1.7030E-01     55.90  8.7797E-02   -124.10
   75.00     10.00    -11.86   -15.19   -10.20      0.0000    -34.27 LINEAR  1.2709E-01     55.96  8.6580E-02   -124.04
   80.00     10.00    -15.41   -15.28   -12.34      0.0000    -45.44 LINEAR  8.4389E-02     56.00  8.5691E-02   -124.00
   85.00     10.00    -21.46   -15.34   -14.39      0.0000    -63.70 LINEAR  4.2088E-02     56.02  8.5150E-02   -123.98
   90.00     10.00   -999.99   -15.35   -15.35      0.0000     90.00 LINEAR  2.4592E-12   -123.97  8.4968E-02   -123.97
   95.00     10.00    -21.46   -15.34   -14.39      0.0000     63.70 LINEAR  4.2088E-02   -123.98  8.5150E-02   -123.98
  100.00     10.00    -15.41   -15.28   -12.34      0.0000     45.44 LINEAR  8.4389E-02   -124.00  8.5691E-02   -124.00
  105.00     10.00    -11.86   -15.19   -10.20      0.0000     34.27 LINEAR  1.2709E-01   -124.04  8.6580E-02   -124.04
  110.00     10.00     -9.32   -15.07    -8.29      0.0000     27.27 LINEAR  1.7030E-01   -124.10  8.7797E-02   -124.10
  115.00     10.00     -7.33   -14.92    -6.63      0.0000     22.65 LINEAR  2.1406E-01   -124.17  8.9313E-02   -124.17
  120.00     10.00     -5.70   -14.75    -5.19      0.0000     19.43 LINEAR  2.5830E-01   -124.24  9.1091E-02   -124.24
  125.00     10.00     -4.32   -14.56    -3.92      0.0000     17.09 LINEAR  3.0280E-01   -124.33  9.3086E-02   -124.33
  130.00     10.00     -3.13   -14.36    -2.81      0.0000     15.34 LINEAR  3.4721E-01   -124.41  9.5245E-02   -124.41
  135.00     10.00     -2.10   -14.16    -1.83      0.0000     14.00 LINEAR  3.9103E-01   -124.50  9.7508E-02   -124.50
  140.00     10.00     -1.20   -13.96    -0.97      0.0000     12.96 LINEAR  4.3361E-01   -124.58  9.9807E-02   -124.58
  145.00     10.00     -0.42   -13.76    -0.22      0.0000     12.15 LINEAR  4.7419E-01   -124.66  1.0207E-01   -124.66
  150.00     10.00      0.24   -13.58     0.42      0.0000     11.51 LINEAR  5.1191E-01   -124.73  1.0423E-01   -124.73
  155.00     10.00      0.80   -13.42     0.96      0.0000     11.01 LINEAR  5.4588E-01   -124.80  1.0620E-01   -124.80
  160.00     10.00      1.26   -13.28     1.41      0.0000     10.63 LINEAR  5.7519E-01   -124.85  1.0793E-01   -124.85
  165.00     10.00      1.61   -13.16     1.75      0.0000     10.35 LINEAR  5.9900E-01   -124.90  1.0935E-01   -124.90
  170.00     10.00      1.86   -13.08     2.00      0.0000     10.15 LINEAR  6.1658E-01   -124.93  1.1040E-01   -124.93
  175.00     10.00      2.01   -13.03     2.14      0.0000     10.04 LINEAR  6.2737E-01   -124.95  1.1104E-01   -124.95
  180.00     10.00      2.06   -13.01     2.19      0.0000     10.00 LINEAR  6.3100E-01   -124.95  1.1126E-01   -124.95
    0.00     15.00      1.89    -9.55     2.19      0.0000    -15.00 LINEAR  6.1890E-01     55.05  1.6583E-01   -124.95
    5.00     15.00      1.84    -9.56     2.15      0.0000    -15.05 LINEAR  6.1538E-01     55.05  1.6552E-01   -124.95
   10.00     15.00      1.69    -9.61     2.00      0.0000    -15.22 LINEAR  6.0494E-01     55.07  1.6459E-01   -124.93
   15.00     15.00      1.45    -9.69     1.77      0.0000    -15.50 LINEAR  5.8791E-01     55.10  1.6309E-01   -124.90
   20.00     15.00      1.10    -9.80     1.44      0.0000    -15.92 LINEAR  5.6482E-01     55.14  1.6106E-01   -124.86
   25.00     15.00      0.65    -9.94     1.01      0.0000    -16.47 LINEAR  5.3637E-01     55.20  1.5858E-01   -124.80
   30.00     15.00      0.10   -10.09     0.49      0.0000    -17.19 LINEAR  5.0336E-01     55.26  1.5574E-01   -124.74
   35.00     15.00     -0.56   -10.27    -0.12      0.0000    -18.11 LINEAR  4.6664E-01     55.33  1.5264E-01   -124.67
   40.00     15.00     -1.33   -10.45    -0.83      0.0000    -19.28 LINEAR  4.2708E-01     55.40  1.4938E-01   -124.60
   45.00     15.00     -2.22   -10.65    -1.64      0.0000    -20.75 LINEAR  3.8549E-01     55.48  1.4608E-01   -124.52
   50.00     15.00     -3.24   -10.84    -2.55      0.0000    -22.63 LINEAR  3.4262E-01     55.57  1.4282E-01   -124.43
   55.00     15.00     -4.42   -11.04    -3.57      0.0000    -25.04 LINEAR  2.9907E-01     55.65  1.3971E-01   -124.35
   60.00     15.00     -5.80   -11.22    -4.70      0.0000    -28.19 LINEAR  2.5534E-01     55.73  1.3684E-01   -124.27
   65.00     15.00     -7.42   -11.38    -5.95      0.0000    -32.38 LINEAR  2.1178E-01     55.80  1.3427E-01   -124.20
   70.00     15.00     -9.40   -11.52    -7.32      0.0000    -38.08 LINEAR  1.6860E-01     55.86  1.3209E-01   -124.14
   75.00     15.00    -11.94   -11.64    -8.78      0.0000    -45.99 LINEAR  1.2589E-01     55.92  1.3033E-01   -124.08
   80.00     15.00    -15.49   -11.73   -10.20      0.0000    -57.05 LINEAR  8.3630E-02     55.96  1.2905E-01   -124.04
   85.00     15.00    -21.53   -11.78   -11.34      0.0000    -71.98 LINEAR  4.1720E-02     55.98  1.2826E-01   -124.02
   90.00     15.00   -999.99   -11.80   -11.80      0.0000     90.00 LINEAR  2.4379E-12   -124.01  1.2800E-01   -124.01
   95.00     15.00    -21.53   -11.78   -11.34      0.0000     71.98 LINEAR  4.1720E-02   -124.02  1.2826E-01   -124.02
  100.00     15.00    -15.49   -11.73   -10.20      0.0000     57.05 LINEAR  8.3630E-02   -124.04  1.2905E-01   -124.04
  105.00     15.00    -11.94   -11.64    -8.78      0.0000     45.99 LINEAR  1.2589E-01   -124.08  1.3033E-01   -124.08
  110.00     15.00     -9.40   -11.52    -7.32      0.0000     38.08 LINEAR  1.6860E-01   -124.14  1.3209E-01   -124.14
  115.00     15.00     -7.42   -11.38    -5.95      0.0000     32.38 LINEAR  2.1178E-01   -124.20  1.3427E-01   -124.20
  120.00     15.00     -5.80   -11.22    -4.70      0.0000     28.19 LINEAR  2.5534E-01   -124.27  1.3684E-01   -124.27
  125.00     15.00     -4.42   -11.04    -3.57      0.0000     25.04 LINEAR  2.9907E-01   -124.35  1.3971E-01   -124.35
  130.00     15.00     -3.24   -10.84    -2.55      0.0000     22.63 LINEAR  3.4262E-01   -124.43  1.4282E-01   -124.43
  135.00     15.00     -2.22   -10.65    -1.64      0.0000     20.75 LINEAR  3.8549E-01   -124.52  1.4608E-01   -124.52
  140.00     15.00     -1.33   -10.45    -0.83      0.0000     19.28 LINEAR  4.2708E-01   -124.60  1.4938E-01   -124.60
  145.00     15.00     -0.56   -10.27    -0.12      0.0000     18.11 LINEAR  4.6664E-01   -124.67  1.5264E-01   -124.67
  150.00     15.00      0.10   -10.09     0.49      0.0000     17.19 LINEAR  5.0336E-01   -124.74  1.5574E-01   -124.74
  155.00     15.00      0.65    -9.94     1.01      0.0000     16.47 LINEAR  5.3637E-01   -124.80  1.5858E-01   -124.80
  160.00     15.00      1.10    -9.80     1.44      0.0000     15.92 LINEAR  5.6482E-01   -124.86  1.6106E-01   -124.86
  165.00     15.00      1.45    -9.69     1.77      0.0000     15.50 LINEAR  5.8791E-01   -124.90  1.6309E-01   -124.90
  170.00     15.00      1.69    -9.61     2.00      0.0000     15.22 LINEAR  6.0494E-01   -124.93  1.6459E-01   -124.93
  175.00     15.00      1.84    -9.56     2.15      0.0000     15.05 LINEAR  6.1538E-01   -124.95  1.6552E-01   -124.95
  180.00     15.00      1.89    -9.55     2.19      0.0000     15.00 LINEAR  6.1890E-01   -124.95  1.6583E-01   -124.95
    0.00     20.00      1.65    -7.13     2.19      0.0000    -20.00 LINEAR  6.0210E-01     55.05  2.1914E-01   -124.95
    5.00     20.00      1.60    -7.14     2.15      0.0000    -20.07 LINEAR  5.9873E-01     55.05  2.1875E-01   -124.95
   10.00     20.00      1.46    -7.19     2.01      0.0000    -20.28 LINEAR  5.8875E-01     55.07  2.1759E-01   -124.93
   15.00     20.00      1.21    -7.26     1.79      0.0000    -20.65 LINEAR  5.7245E-01     55.10  2.1571E-01   -124.90
   20.00     20.00      0.87    -7.37     1.48      0.0000    -21.17 LINEAR  5.5035E-01     55.14  2.1316E-01   -124.86
   25.00     20.00      0.43    -7.49     1.08      0.0000    -21.88 LINEAR  5.2306E-01     55.19  2.1006E-01   -124.81
   30.00     20.00     -0.11    -7.64     0.59      0.0000    -22.80 LINEAR  4.9135E-01     55.25  2.0650E-01   -124.75
   35.00     20.00     -0.76    -7.81     0.02      0.0000    -23.96 LINEAR  4.5601E-01     55.31  2.0262E-01   -124.69
   40.00     20.00     -1.52    -7.98    -0.64      0.0000    -25.41 LINEAR  4.1785E-01     55.38  1.9853E-01   -124.62
   45.00     20.00     -2.40    -8.17    -1.38      0.0000    -27.24 LINEAR  3.7763E-01     55.46  1.9438E-01   -124.54
   50.00     20.00     -3.41    -8.35    -2.20      0.0000    -29.52 LINEAR  3.3605E-01     55.54  1.9028E-01   -124.46
   55.00     20.00     -4.58    -8.53    -3.11      0.0000    -32.40 LINEAR  2.9370E-01     55.61  1.8637E-01   -124.39
   60.00     20.00     -5.94    -8.70    -4.10      0.0000    -36.05 LINEAR  2.5105E-01     55.69  1.8275E-01   -124.31
   65.00     20.00     -7.56    -8.86    -5.15      0.0000    -40.74 LINEAR  2.0845E-01     55.75  1.7952E-01   -124.25
   70.00     20.00     -9.53    -8.99    -6.24      0.0000    -46.78 LINEAR  1.6610E-01     55.81  1.7676E-01   -124.19
   75.00     20.00    -12.06    -9.10    -7.32      0.0000    -54.58 LINEAR  1.2412E-01     55.86  1.7455E-01   -124.14
   80.00     20.00    -15.61    -9.18    -8.29      0.0000    -64.49 LINEAR  8.2502E-02     55.90  1.7293E-01   -124.10
   85.00     20.00    -21.65    -9.23    -8.99      0.0000    -76.53 LINEAR  4.1172E-02     55.92  1.7194E-01   -124.08
   90.00     20.00   -999.99    -9.25    -9.25      0.0000     90.00 LINEAR  2.4062E-12   -124.07  1.7161E-01   -124.07
   95.00     20.00    -21.65    -9.23    -8.99      0.0000     76.53 LINEAR  4.1172E-02   -124.08  1.7194E-01   -124.08
  100.00     20.00    -15.61    -9.18    -8.29      0.0000     64.49 LINEAR  8.2502E-02   -124.10  1.7293E-01   -124.10
  105.00     20.00    -12.06    -9.10    -7.32      0.0000     54.58 LINEAR  1.2412E-01   -124.14  1.7455E-01   -124.14
  110.00     20.00     -9.53    -8.99    -6.24      0.0000     46.78 LINEAR  1.6610E-01   -124.19  1.7676E-01   -124.19
  115.00     20.00     -7.56    -8.86    -5.15      0.0000     40.74 LINEAR  2.0845E-01   -124.25  1.7952E-01   -124.25
  120.00     20.00     -5.94    -8.70    -4.10      0.0000     36.05 LINEAR  2.5105E-01   -124.31  1.8275E-01   -124.31
  125.00     20.00     -4.58    -8.53    -3.11      0.0000     32.40 LINEAR  2.9370E-01   -124.39  1.8637E-01   -124.39
  130.00     20.00     -3.41    -8.35    -2.20      0.0000     29.52 LINEAR  3.3605E-01   -124.46  1.9028E-01   -124.46
  135.00     20.00     -2.40    -8.17    -1.38      0.0000     27.24 LINEAR  3.7763E-01   -124.54  1.9438E-01   -124.54
  140.00     20.00     -1.52    -7.98    -0.64      0.0000     25.41 LINEAR  4.1785E-01   -124.62  1.9853E-01   -124.62
  145.00     20.00     -0.76    -7.81     0.02      0.0000     23.96 LINEAR  4.5601E-01   -124.69  2.0262E-01   -124.69
  150.00     20.00     -0.11    -7.64     0.59      0.0000     22.80 LINEAR  4.9135E-01   -124.75  2.0650E-01   -124.75
  155.00     20.00      0.43    -7.49     1.08      0.0000     21.88 LINEAR  5.2306E-01   -124.81  2.1006E-01   -124.81
  160.00     20.00      0.87    -7.37     1.48      0.0000     21.17 LINEAR  5.5035E-01   -124.86  2.1316E-01   -124.86
  165.00     20.00      1.21    -7.26     1.79      0.0000     20.65 LINEAR  5.7245E-01   -124.90  2.1571E-01   -124.90
  170.00     20.00      1.46    -7.19     2.01      0.0000     20.28 LINEAR  5.8875E-01   -124.93  2.1759E-01   -124.93
  175.00     20.00      1.60    -7.14     2.15      0.0000     20.07 LINEAR  5.9873E-01   -124.95  2.1875E-01   -124.95
  180.00     20.00      1.65    -7.13     2.19      0.0000     20.00 LINEAR  6.0210E-01   -124.95  2.1914E-01   -124.95
    0.00     25.00      1.34    -5.29     2.19      0.0000    -25.00 LINEAR  5.8070E-01     55.05  2.7079E-01   -124.95
    5.00     25.00      1.29    -5.30     2.15      0.0000    -25.08 LINEAR  5.7753E-01     55.05  2.7034E-01   -124.95
   10.00     25.00      1.15    -5.34     2.03      0.0000    -25.34 LINEAR  5.6811E-01     55.07  2.6900E-01   -124.93
   15.00     25.00      0.91    -5.42     1.82      0.0000    -25.77 LINEAR  5.5273E-01     55.10  2.6683E-01   -124.90
   20.00     25.00      0.58    -5.51     1.53      0.0000    -26.39 LINEAR  5.3182E-01     55.13  2.6391E-01   -124.87
   25.00     25.00      0.14    -5.63     1.16      0.0000    -27.23 LINEAR  5.0598E-01     55.18  2.6033E-01   -124.82
   30.00     25.00     -0.39    -5.77     0.72      0.0000    -28.30 LINEAR  4.7588E-01     55.23  2.5624E-01   -124.77
   35.00     25.00     -1.03    -5.92     0.19      0.0000    -29.65 LINEAR  4.4225E-01     55.29  2.5175E-01   -124.71
   40.00     25.00     -1.77    -6.08    -0.40      0.0000    -31.33 LINEAR  4.0583E-01     55.36  2.4704E-01   -124.64
   45.00     25.00     -2.64    -6.26    -1.07      0.0000    -33.40 LINEAR  3.6733E-01     55.43  2.4224E-01   -124.57
   50.00     25.00     -3.64    -6.43    -1.80      0.0000    -35.96 LINEAR  3.2739E-01     55.50  2.3750E-01   -124.50
   55.00     25.00     -4.80    -6.59    -2.59      0.0000    -39.11 LINEAR  2.8656E-01     55.57  2.3297E-01   -124.43
   60.00     25.00     -6.15    -6.75    -3.43      0.0000    -43.00 LINEAR  2.4530E-01     55.64  2.2877E-01   -124.36
   65.00     25.00     -7.75    -6.90    -4.29      0.0000    -47.81 LINEAR  2.0394E-01     55.70  2.2503E-01   -124.30
   70.00     25.00     -9.71    -7.02    -5.15      0.0000    -53.74 LINEAR  1.6270E-01     55.75  2.2182E-01   -124.25
   75.00     25.00    -12.23    -7.12    -5.95      0.0000    -60.97 LINEAR  1.2169E-01     55.80  2.1925E-01   -124.20
   80.00     25.00    -15.78    -7.20    -6.63      0.0000    -69.58 LINEAR  8.0945E-02     55.83  2.1737E-01   -124.17
   85.00     25.00    -21.81    -7.24    -7.09      0.0000    -79.41 LINEAR  4.0412E-02     55.85  2.1622E-01   -124.15
   90.00     25.00   -999.99    -7.26    -7.26      0.0000     90.00 LINEAR  2.3621E-12   -124.14  2.1583E-01   -124.14
   95.00     25.00    -21.81    -7.24    -7.09      0.0000     79.41 LINEAR  4.0412E-02   -124.15  2.1622E-01   -124.15
  100.00     25.00    -15.78    -7.20    -6.63      0.0000     69.58 LINEAR  8.0945E-02   -124.17  2.1737E-01   -124.17
  105.00     25.00    -12.23    -7.12    -5.95      0.0000     60.97 LINEAR  1.2169E-01   -124.20  2.1925E-01   -124.20
  110.00     25.00     -9.71    -7.02    -5.15      0.0000     53.74 LINEAR  1.6270E-01   -124.25  2.2182E-01   -124.25
  115.00     25.00     -7.75    -6.90    -4.29      0.0000     47.81 LINEAR  2.0394E-01   -124.30  2.2503E-01   -124.30
  120.00     25.00     -6.15    -6.75    -3.43      0.0000     43.00 LINEAR  2.4530E-01   -124.36  2.2877E-01   -124.36
  125.00     25.00     -4.80    -6.59    -2.59      0.0000     39.11 LINEAR  2.8656E-01   -124.43  2.3297E-01   -124.43
  130.00     25.00     -3.64    -6.43    -1.80      0.0000     35.96 LINEAR  3.2739E-01   -124.50  2.3750E-01   -124.50
  135.00     25.00     -2.64    -6.26    -1.07      0.0000     33.40 LINEAR  3.6733E-01   -124.57  2.4224E-01   -124.57
  140.00     25.00     -1.77    -6.08    -0.40      0.0000     31.33 LINEAR  4.0583E-01   -124.64  2.4704E-01   -124.64
  145.00     25.00     -1.03    -5.92     0.19      0.0000     29.65 LINEAR  4.4225E-01   -124.71  2.5175E-01   -124.71
  150.00     25.00     -0.39    -5.77     0.72      0.0000     28.30 LINEAR  4.7588E-01   -124.77  2.5624E-01   -124.77
  155.00     25.00      0.14    -5.63     1.16      0.0000     27.23 LINEAR  5.0598E-01   -124.82  2.6033E-01   -124.82
  160.00     25.00      0.58    -5.51     1.53      0.0000     26.39 LINEAR  5.3182E-01   -124.87  2.6391E-01   -124.87
  165.00     25.00      0.91    -5.42     1.82      0.0000     25.77 LINEAR  5.5273E-01   -124.90  2.6683E-01   -124.90
  170.00     25.00      1.15    -5.34     2.03      0.0000     25.34 LINEAR  5.6811E-01   -124.93  2.6900E-01   -124.93
  175.00     25.00      1.29    -5.30     2.15      0.0000     25.08 LINEAR  5.7753E-01   -124.95  2.7034E-01   -124.95
  180.00     25.00      1.34    -5.29     2.19      0.0000     25.00 LINEAR  5.8070E-01   -124.95  2.7079E-01   -124.95
    0.00     30.00      0.94    -3.83     2.19      0.0000    -30.00 LINEAR  5.5489E-01     55.05  3.2037E-01   -124.95
    5.00     30.00      0.90    -3.84     2.16      0.0000    -30.09 LINEAR  5.5194E-01     55.05  3.1988E-01   -124.95
   10.00     30.00      0.76    -3.88     2.04      0.0000    -30.38 LINEAR  5.4317E-01     55.07  3.1844E-01   -124.93
   15.00     30.00      0.53    -3.94     1.85      0.0000    -30.87 LINEAR  5.2884E-01     55.09  3.1610E-01   -124.91
   20.00     30.00      0.20    -4.03     1.59      0.0000    -31.57 LINEAR  5.0933E-01     55.13  3.1293E-01   -124.87
   25.00     30.00     -0.22    -4.14     1.26      0.0000    -32.50 LINEAR  4.8516E-01     55.17  3.0906E-01   -124.83
   30.00     30.00     -0.74    -4.26     0.85      0.0000    -33.69 LINEAR  4.5694E-01     55.22  3.0462E-01   -124.78
   35.00     30.00     -1.37    -4.40     0.39      0.0000    -35.18 LINEAR  4.2531E-01     55.27  2.9976E-01   -124.73
   40.00     30.00     -2.10    -4.55    -0.14      0.0000    -37.00 LINEAR  3.9094E-01     55.33  2.9464E-01   -124.67
   45.00     30.00     -2.95    -4.71    -0.73      0.0000    -39.23 LINEAR  3.5447E-01     55.39  2.8942E-01   -124.61
   50.00     30.00     -3.93    -4.87    -1.36      0.0000    -41.93 LINEAR  3.1649E-01     55.46  2.8427E-01   -124.54
   55.00     30.00     -5.07    -5.02    -2.04      0.0000    -45.19 LINEAR  2.7751E-01     55.52  2.7933E-01   -124.48
   60.00     30.00     -6.41    -5.16    -2.73      0.0000    -49.11 LINEAR  2.3795E-01     55.58  2.7476E-01   -124.42
   65.00     30.00     -8.00    -5.29    -3.43      0.0000    -53.80 LINEAR  1.9812E-01     55.64  2.7066E-01   -124.36
   70.00     30.00     -9.95    -5.40    -4.10      0.0000    -59.36 LINEAR  1.5827E-01     55.69  2.6716E-01   -124.31
   75.00     30.00    -12.47    -5.50    -4.70      0.0000    -65.85 LINEAR  1.1850E-01     55.73  2.6435E-01   -124.27
   80.00     30.00    -16.00    -5.56    -5.19      0.0000    -73.26 LINEAR  7.8887E-02     55.76  2.6229E-01   -124.24
   85.00     30.00    -22.03    -5.61    -5.51      0.0000    -81.42 LINEAR  3.9404E-02     55.78  2.6103E-01   -124.22
   90.00     30.00   -999.99    -5.62    -5.62      0.0000     90.00 LINEAR  2.3036E-12   -124.22  2.6061E-01   -124.22
   95.00     30.00    -22.03    -5.61    -5.51      0.0000     81.42 LINEAR  3.9404E-02   -124.22  2.6103E-01   -124.22
  100.00     30.00    -16.00    -5.56    -5.19      0.0000     73.26 LINEAR  7.8887E-02   -124.24  2.6229E-01   -124.24
  105.00     30.00    -12.47    -5.50    -4.70      0.0000     65.85 LINEAR  1.1850E-01   -124.27  2.6435E-01   -124.27
  110.00     30.00     -9.95    -5.40    -4.10      0.0000     59.36 LINEAR  1.5827E-01   -124.31  2.6716E-01   -124.31
  115.00     30.00     -8.00    -5.29    -3.43      0.0000     53.80 LINEAR  1.9812E-01   -124.36  2.7066E-01   -124.36
  120.00     30.00     -6.41    -5.16    -2.73      0.0000     49.11 LINEAR  2.3795E-01   -124.42  2.7476E-01   -124.42
  125.00     30.00     -5.07    -5.02    -2.04      0.0000     45.19 LINEAR  2.7751E-01   -124.48  2.7933E-01   -124.48
  130.00     30.00     -3.93    -4.87    -1.36      0.0000     41.93 LINEAR  3.1649E-01   -124.54  2.8427E-01   -124.54
  135.00     30.00     -2.95    -4.71    -0.73      0.0000     39.23 LINEAR  3.5447E-01   -124.61  2.8942E-01   -124.61
  140.00     30.00     -2.10    -4.55    -0.14      0.0000     37.00 LINEAR  3.9094E-01   -124.67  2.9464E-01   -124.67
  145.00     30.00     -1.37    -4.40     0.39      0.0000     35.18 LINEAR  4.2531E-01   -124.73  2.9976E-01   -124.73
  150.00     30.00     -0.74    -4.26     0.85      0.0000     33.69 LINEAR  4.5694E-01   -124.78  3.0462E-01   -124.78
  155.00     30.00     -0.22    -4.14     1.26      0.0000     32.50 LINEAR  4.8516E-01   -124.83  3.0906E-01   -124.83
  160.00     30.00      0.20    -4.03     1.59      0.0000     31.57 LINEAR  5.0933E-01   -124.87  3.1293E-01   -124.87
  165.00     30.00      0.53    -3.94     1.85      0.0000     30.87 LINEAR  5.2884E-01   -124.91  3.1610E-01   -124.91
  170.00     30.00      0.76    -3.88     2.04      0.0000     30.38 LINEAR  5.4317E-01   -124.93  3.1844E-01   -124.93
  175.00     30.00      0.90    -3.84     2.16      0.0000     30.09 LINEAR  5.5194E-01   -124.95  3.1988E-01   -124.95
  180.00     30.00      0.94    -3.83     2.19      0.0000     30.00 LINEAR  5.5489E-01   -124.95  3.2037E-01   -124.95
    0.00     35.00      0.46    -2.63     2.19      0.0000    -35.00 LINEAR  5.2486E-01     55.05  3.6751E-01   -124.95
    5.00     35.00      0.42    -2.65     2.16      0.0000    -35.10 LINEAR  5.2215E-01     55.05  3.6701E-01   -124.95
   10.00     35.00      0.28    -2.68     2.06      0.0000    -35.41 LINEAR  5.1410E-01     55.07  3.6553E-01   -124.93
   15.00     35.00      0.06    -2.74     1.89      0.0000    -35.94 LINEAR  5.0092E-01     55.09  3.6312E-01   -124.91
   20.00     35.00     -0.26    -2.82     1.66      0.0000    -36.69 LINEAR  4.8296E-01     55.12  3.5987E-01   -124.88
   25.00     35.00     -0.67    -2.91     1.36      0.0000    -37.69 LINEAR  4.6065E-01     55.15  3.5589E-01   -124.85
   30.00     35.00     -1.18    -3.03     1.00      0.0000    -38.96 LINEAR  4.3452E-01     55.20  3.5132E-01   -124.80
   35.00     35.00     -1.79    -3.15     0.59      0.0000    -40.52 LINEAR  4.0514E-01     55.25  3.4631E-01   -124.75
   40.00     35.00     -2.50    -3.28     0.13      0.0000    -42.43 LINEAR  3.7309E-01     55.30  3.4103E-01   -124.70
   45.00     35.00     -3.34    -3.42    -0.37      0.0000    -44.72 LINEAR  3.3894E-01     55.36  3.3564E-01   -124.64
   50.00     35.00     -4.30    -3.56    -0.91      0.0000    -47.45 LINEAR  3.0322E-01     55.41  3.3030E-01   -124.59
   55.00     35.00     -5.43    -3.70    -1.47      0.0000    -50.68 LINEAR  2.6638E-01     55.47  3.2519E-01   -124.53
   60.00     35.00     -6.75    -3.83    -2.04      0.0000    -54.47 LINEAR  2.2882E-01     55.52  3.2044E-01   -124.48
   65.00     35.00     -8.33    -3.94    -2.59      0.0000    -58.89 LINEAR  1.9084E-01     55.57  3.1619E-01   -124.43
   70.00     35.00    -10.27    -4.04    -3.11      0.0000    -63.97 LINEAR  1.5267E-01     55.61  3.1255E-01   -124.39
   75.00     35.00    -12.77    -4.12    -3.57      0.0000    -69.71 LINEAR  1.1445E-01     55.65  3.0962E-01   -124.35
   80.00     35.00    -16.30    -4.18    -3.92      0.0000    -76.07 LINEAR  7.6252E-02     55.67  3.0747E-01   -124.33
   85.00     35.00    -22.32    -4.22    -4.15      0.0000    -82.90 LINEAR  3.8109E-02     55.69  3.0616E-01   -124.31
   90.00     35.00   -999.99    -4.23    -4.23      0.0000     90.00 LINEAR  2.2282E-12   -124.30  3.0572E-01   -124.30
   95.00     35.00    -22.32    -4.22    -4.15      0.0000     82.90 LINEAR  3.8109E-02   -124.31  3.0616E-01   -124.31
  100.00     35.00    -16.30    -4.18    -3.92      0.0000     76.07 LINEAR  7.6252E-02   -124.33  3.0747E-01   -124.33
  105.00     35.00    -12.77    -4.12    -3.57      0.0000     69.71 LINEAR  1.1445E-01   -124.35  3.0962E-01   -124.35
  110.00     35.00    -10.27    -4.04    -3.11      0.0000     63.97 LINEAR  1.5267E-01   -124.39  3.1255E-01   -124.39
  115.00     35.00     -8.33    -3.94    -2.59      0.0000     58.89 LINEAR  1.9084E-01   -124.43  3.1619E-01   -124.43
  120.00     35.00     -6.75    -3.83    -2.04      0.0000     54.47 LINEAR  2.2882E-01   -124.48  3.2044E-01   -124.48
  125.00     35.00     -5.43    -3.70    -1.47      0.0000     50.68 LINEAR  2.6638E-01   -124.53  3.2519E-01   -124.53
  130.00     35.00     -4.30    -3.56    -0.91      0.0000     47.45 LINEAR  3.0322E-01   -124.59  3.3030E-01   -124.59
  135.00     35.00     -3.34    -3.42    -0.37      0.0000     44.72 LINEAR  3.3894E-01   -124.64  3.3564E-01   -124.64
  140.00     35.00     -2.50    -3.28     0.13      0.0000     42.43 LINEAR  3.7309E-01   -124.70  3.4103E-01   -124.70
  145.00     35.00     -1.79    -3.15     0.59      0.0000     40.52 LINEAR  4.0514E-01   -124.75  3.4631E-01   -124.75
  150.00     35.00     -1.18    -3.03     1.00      0.0000     38.96 LINEAR  4.3452E-01   -124.80  3.5132E-01   -124.80
  155.00     35.00     -0.67    -2.91     1.36      0.0000     37.69 LINEAR  4.6065E-01   -124.85  3.5589E-01   -124.85
  160.00     35.00     -0.26    -2.82     1.66      0.0000     36.69 LINEAR  4.8296E-01   -124.88  3.5987E-01   -124.88
  165.00     35.00      0.06    -2.74     1.89      0.0000     35.94 LINEAR  5.0092E-01   -124.91  3.6312E-01   -124.91
  170.00     35.00      0.28    -2.68     2.06      0.0000     35.41 LINEAR  5.1410E-01   -124.93  3.6553E-01   -124.93
  175.00     35.00      0.42    -2.65     2.16      0.0000     35.10 LINEAR  5.2215E-01   -124.95  3.6701E-01   -124.95
  180.00     35.00      0.46    -2.63     2.19      0.0000     35.00 LINEAR  5.2486E-01   -124.95  3.6751E-01   -124.95
    0.00     40.00     -0.12    -1.65     2.19      0.0000    -40.00 LINEAR  4.9083E-01     55.05  4.1186E-01   -124.95
    5.00     40.00     -0.16    -1.66     2.16      0.0000    -40.11 LINEAR  4.8838E-01     55.05  4.1137E-01   -124.95
   10.00     40.00     -0.30    -1.69     2.07      0.0000    -40.43 LINEAR  4.8110E-01     55.06  4.0992E-01   -124.94
   15.00     40.00     -0.51    -1.74     1.93      0.0000    -40.98 LINEAR  4.6915E-01     55.08  4.0755E-01   -124.92
   20.00     40.00     -0.82    -1.80     1.73      0.0000    -41.76 LINEAR  4.5284E-01     55.11  4.0436E-01   -124.89
   25.00     40.00     -1.22    -1.89     1.47      0.0000    -42.79 LINEAR  4.3253E-01     55.14  4.0046E-01   -124.86
   30.00     40.00     -1.71    -1.99     1.16      0.0000    -44.10 LINEAR  4.0867E-01     55.18  3.9596E-01   -124.82
   35.00     40.00     -2.30    -2.10     0.81      0.0000    -45.69 LINEAR  3.8173E-01     55.22  3.9103E-01   -124.78
   40.00     40.00     -3.00    -2.21     0.42      0.0000    -47.61 LINEAR  3.5223E-01     55.27  3.8582E-01   -124.73
   45.00     40.00     -3.82    -2.33    -0.00      0.0000    -49.88 LINEAR  3.2064E-01     55.31  3.8049E-01   -124.69
   50.00     40.00     -4.77    -2.45    -0.45      0.0000    -52.55 LINEAR  2.8744E-01     55.36  3.7522E-01   -124.64
   55.00     40.00     -5.88    -2.57    -0.91      0.0000    -55.64 LINEAR  2.5303E-01     55.41  3.7016E-01   -124.59
   60.00     40.00     -7.18    -2.68    -1.36      0.0000    -59.21 LINEAR  2.1776E-01     55.46  3.6545E-01   -124.54
   65.00     40.00     -8.74    -2.78    -1.80      0.0000    -63.27 LINEAR  1.8194E-01     55.50  3.6123E-01   -124.50
   70.00     40.00    -10.67    -2.87    -2.20      0.0000    -67.82 LINEAR  1.4577E-01     55.54  3.5762E-01   -124.46
   75.00     40.00    -13.16    -2.94    -2.55      0.0000    -72.86 LINEAR  1.0941E-01     55.57  3.5470E-01   -124.43
   80.00     40.00    -16.68    -3.00    -2.81      0.0000    -78.31 LINEAR  7.2962E-02     55.59  3.5257E-01   -124.41
   85.00     40.00    -22.70    -3.03    -2.98      0.0000    -84.07 LINEAR  3.6485E-02     55.60  3.5126E-01   -124.40
   90.00     40.00   -999.99    -3.04    -3.04      0.0000     90.00 LINEAR  2.1337E-12   -124.39  3.5082E-01   -124.39
   95.00     40.00    -22.70    -3.03    -2.98      0.0000     84.07 LINEAR  3.6485E-02   -124.40  3.5126E-01   -124.40
  100.00     40.00    -16.68    -3.00    -2.81      0.0000     78.31 LINEAR  7.2962E-02   -124.41  3.5257E-01   -124.41
  105.00     40.00    -13.16    -2.94    -2.55      0.0000     72.86 LINEAR  1.0941E-01   -124.43  3.5470E-01   -124.43
  110.00     40.00    -10.67    -2.87    -2.20      0.0000     67.82 LINEAR  1.4577E-01   -124.46  3.5762E-01   -124.46
  115.00     40.00     -8.74    -2.78    -1.80      0.0000     63.27 LINEAR  1.8194E-01   -124.50  3.6123E-01   -124.50
  120.00     40.00     -7.18    -2.68    -1.36      0.0000     59.21 LINEAR  2.1776E-01   -124.54  3.6545E-01   -124.54
  125.00     40.00     -5.88    -2.57    -0.91      0.0000     55.64 LINEAR  2.5303E-01   -124.59  3.7016E-01   -124.59
  130.00     40.00     -4.77    -2.45    -0.45      0.0000     52.55 LINEAR  2.8744E-01   -124.64  3.7522E-01   -124.64
  135.00     40.00     -3.82    -2.33    -0.00      0.0000     49.88 LINEAR  3.2064E-01   -124.69  3.8049E-01   -124.69
  140.00     40.00     -3.00    -2.21     0.42      0.0000     47.61 LINEAR  3.5223E-01   -124.73  3.8582E-01   -124.73
  145.00     40.00     -2.30    -2.10     0.81      0.0000     45.69 LINEAR  3.8173E-01   -124.78  3.9103E-01   -124.78
  150.00     40.00     -1.71    -1.99     1.16      0.0000     44.10 LINEAR  4.0867E-01   -124.82  3.9596E-01   -124.82
  155.00     40.00     -1.22    -1.89     1.47      0.0000     42.79 LINEAR  4.3253E-01   -124.86  4.0046E-01   -124.86
  160.00     40.00     -0.82    -1.80     1.73      0.0000     41.76 LINEAR  4.5284E-01   -124.89  4.0436E-01   -124.89
  165.00     40.00     -0.51    -1.74     1.93      0.0000     40.98 LINEAR  4.6915E-01   -124.92  4.0755E-01   -124.92
  170.00     40.00     -0.30    -1.69     2.07      0.0000     40.43 LINEAR  4.8110E-01   -124.94  4.0992E-01   -124.94
  175.00     40.00     -0.16    -1.66     2.16      0.0000     40.11 LINEAR  4.8838E-01   -124.95  4.1137E-01   -124.95
  180.00     40.00     -0.12    -1.65     2.19      0.0000     40.00 LINEAR  4.9083E-01   -124.95  4.1186E-01   -124.95
    0.00     45.00     -0.82    -0.82     2.19      0.0000    -45.00 LINEAR  4.5307E-01     55.05  4.5307E-01   -124.95
    5.00     45.00     -0.86    -0.83     2.17      0.0000    -45.11 LINEAR  4.5089E-01     55.05  4.5261E-01   -124.95
   10.00     45.00     -0.98    -0.85     2.09      0.0000    -45.44 LINEAR  4.4439E-01     55.06  4.5125E-01   -124.94
   15.00     45.00     -1.20    -0.89     1.97      0.0000    -45.99 LINEAR  4.3373E-01     55.08  4.4903E-01   -124.92
   20.00     45.00     -1.49    -0.95     1.80      0.0000    -46.78 LINEAR  4.1914E-01     55.10  4.4604E-01   -124.90
   25.00     45.00     -1.88    -1.02     1.58      0.0000    -47.81 LINEAR  4.0092E-01     55.13  4.4237E-01   -124.87
   30.00     45.00     -2.36    -1.11     1.32      0.0000    -49.11 LINEAR  3.7944E-01     55.16  4.3814E-01   -124.84
   35.00     45.00     -2.93    -1.20     1.03      0.0000    -50.68 LINEAR  3.5510E-01     55.19  4.3349E-01   -124.81
   40.00     45.00     -3.61    -1.30     0.71      0.0000    -52.55 LINEAR  3.2831E-01     55.23  4.2858E-01   -124.77
   45.00     45.00     -4.41    -1.40     0.36      0.0000    -54.74 LINEAR  2.9950E-01     55.27  4.2355E-01   -124.73
   50.00     45.00     -5.34    -1.50    -0.00      0.0000    -57.27 LINEAR  2.6905E-01     55.31  4.1857E-01   -124.69
   55.00     45.00     -6.43    -1.60    -0.37      0.0000    -60.16 LINEAR  2.3733E-01     55.36  4.1377E-01   -124.64
   60.00     45.00     -7.72    -1.70    -0.73      0.0000    -63.43 LINEAR  2.0465E-01     55.39  4.0931E-01   -124.61
   65.00     45.00     -9.27    -1.78    -1.07      0.0000    -67.09 LINEAR  1.7129E-01     55.43  4.0530E-01   -124.57
   70.00     45.00    -11.18    -1.86    -1.38      0.0000    -71.12 LINEAR  1.3745E-01     55.46  4.0187E-01   -124.54
   75.00     45.00    -13.66    -1.92    -1.64      0.0000    -75.49 LINEAR  1.0329E-01     55.48  3.9909E-01   -124.52
   80.00     45.00    -17.17    -1.96    -1.83      0.0000    -80.15 LINEAR  6.8948E-02     55.50  3.9706E-01   -124.50
   85.00     45.00    -23.18    -1.99    -1.96      0.0000    -85.02 LINEAR  3.4498E-02     55.51  3.9582E-01   -124.49
   90.00     45.00   -999.99    -2.00    -2.00      0.0000     90.00 LINEAR  2.0179E-12   -124.48  3.9540E-01   -124.48
   95.00     45.00    -23.18    -1.99    -1.96      0.0000     85.02 LINEAR  3.4498E-02   -124.49  3.9582E-01   -124.49
  100.00     45.00    -17.17    -1.96    -1.83      0.0000     80.15 LINEAR  6.8948E-02   -124.50  3.9706E-01   -124.50
  105.00     45.00    -13.66    -1.92    -1.64      0.0000     75.49 LINEAR  1.0329E-01   -124.52  3.9909E-01   -124.52
  110.00     45.00    -11.18    -1.86    -1.38      0.0000     71.12 LINEAR  1.3745E-01   -124.54  4.0187E-01   -124.54
  115.00     45.00     -9.27    -1.78    -1.07      0.0000     67.09 LINEAR  1.7129E-01   -124.57  4.0530E-01   -124.57
  120.00     45.00     -7.72    -1.70    -0.73      0.0000     63.43 LINEAR  2.0465E-01   -124.61  4.0931E-01   -124.61
  125.00     45.00     -6.43    -1.60    -0.37      0.0000     60.16 LINEAR  2.3733E-01   -124.64  4.1377E-01   -124.64
  130.00     45.00     -5.34    -1.50    -0.00      0.0000     57.27 LINEAR  2.6905E-01   -124.69  4.1857E-01   -124.69
  135.00     45.00     -4.41    -1.40     0.36      0.0000     54.74 LINEAR  2.9950E-01   -124.73  4.2355E-01   -124.73
  140.00     45.00     -3.61    -1.30     0.71      0.0000     52.55 LINEAR  3.2831E-01   -124.77  4.2858E-01   -124.77
  145.00     45.00     -2.93    -1.20     1.03      0.0000     50.68 LINEAR  3.5510E-01   -124.81  4.3349E-01   -124.81
  150.00     45.00     -2.36    -1.11     1.32      0.0000     49.11 LINEAR  3.7944E-01   -124.84  4.3814E-01   -124.84
  155.00     45.00     -1.88    -1.02     1.58      0.0000     47.81 LINEAR  4.0092E-01   -124.87  4.4237E-01   -124.87
  160.00     45.00     -1.49    -0.95     1.80      0.0000     46.78 LINEAR  4.1914E-01   -124.90  4.4604E-01   -124.90
  165.00     45.00     -1.20    -0.89     1.97      0.0000     45.99 LINEAR  4.3373E-01   -124.92  4.4903E-01   -124.92
  170.00     45.00     -0.98    -0.85     2.09      0.0000     45.44 LINEAR  4.4439E-01   -124.94  4.5125E-01   -124.94
  175.00     45.00     -0.86    -0.83     2.17      0.0000     45.11 LINEAR  4.5089E-01   -124.95  4.5261E-01   -124.95
  180.00     45.00     -0.82    -0.82     2.19      0.0000     45.00 LINEAR  4.5307E-01   -124.95  4.5307E-01   -124.95
    0.00     50.00     -1.65    -0.12     2.19      0.0000    -50.00 LINEAR  4.1186E-01     55.05  4.9083E-01   -124.95
    5.00     50.00     -1.69    -0.13     2.17      0.0000    -50.11 LINEAR  4.0995E-01     55.05  4.9042E-01   -124.95
   10.00     50.00     -1.81    -0.15     2.11      0.0000    -50.43 LINEAR  4.0425E-01     55.06  4.8920E-01   -124.94
   15.00     50.00     -2.01    -0.19     2.01      0.0000    -50.97 LINEAR  3.9489E-01     55.07  4.8722E-01   -124.93
   20.00     50.00     -2.30    -0.23     1.87      0.0000    -51.74 LINEAR  3.8205E-01     55.09  4.8453E-01   -124.91
   25.00     50.00     -2.67    -0.29     1.69      0.0000    -52.75 LINEAR  3.6597E-01     55.11  4.8124E-01   -124.89
   30.00     50.00     -3.13    -0.36     1.48      0.0000    -53.99 LINEAR  3.4695E-01     55.14  4.7744E-01   -124.86
   35.00     50.00     -3.69    -0.44     1.24      0.0000    -55.50 LINEAR  3.2530E-01     55.17  4.7326E-01   -124.83
   40.00     50.00     -4.36    -0.52     0.98      0.0000    -57.27 LINEAR  3.0136E-01     55.20  4.6884E-01   -124.80
   45.00     50.00     -5.14    -0.60     0.71      0.0000    -59.32 LINEAR  2.7549E-01     55.23  4.6430E-01   -124.77
   50.00     50.00     -6.05    -0.69     0.42      0.0000    -61.66 LINEAR  2.4800E-01     55.27  4.5980E-01   -124.73
   55.00     50.00     -7.12    -0.77     0.13      0.0000    -64.30 LINEAR  2.1921E-01     55.30  4.5546E-01   -124.70
   60.00     50.00     -8.39    -0.85    -0.14      0.0000    -67.24 LINEAR  1.8939E-01     55.33  4.5142E-01   -124.67
   65.00     50.00     -9.92    -0.92    -0.40      0.0000    -70.47 LINEAR  1.5879E-01     55.36  4.4778E-01   -124.64
   70.00     50.00    -11.82    -0.98    -0.64      0.0000    -73.99 LINEAR  1.2761E-01     55.38  4.4466E-01   -124.62
   75.00     50.00    -14.29    -1.03    -0.83      0.0000    -77.75 LINEAR  9.6023E-02     55.40  4.4214E-01   -124.60
   80.00     50.00    -17.80    -1.07    -0.97      0.0000    -81.71 LINEAR  6.4154E-02     55.42  4.4029E-01   -124.58
   85.00     50.00    -23.81    -1.09    -1.06      0.0000    -85.82 LINEAR  3.2117E-02     55.43  4.3916E-01   -124.57
   90.00     50.00   -999.99    -1.10    -1.10      0.0000     90.00 LINEAR  1.8790E-12   -124.57  4.3878E-01   -124.57
   95.00     50.00    -23.81    -1.09    -1.06      0.0000     85.82 LINEAR  3.2117E-02   -124.57  4.3916E-01   -124.57
  100.00     50.00    -17.80    -1.07    -0.97      0.0000     81.71 LINEAR  6.4154E-02   -124.58  4.4029E-01   -124.58
  105.00     50.00    -14.29    -1.03    -0.83      0.0000     77.75 LINEAR  9.6023E-02   -124.60  4.4214E-01   -124.60
  110.00     50.00    -11.82    -0.98    -0.64      0.0000     73.99 LINEAR  1.2761E-01   -124.62  4.4466E-01   -124.62
  115.00     50.00     -9.92    -0.92    -0.40      0.0000     70.47 LINEAR  1.5879E-01   -124.64  4.4778E-01   -124.64
  120.00     50.00     -8.39    -0.85    -0.14      0.0000     67.24 LINEAR  1.8939E-01   -124.67  4.5142E-01   -124.67
  125.00     50.00     -7.12    -0.77     0.13      0.0000     64.30 LINEAR  2.1921E-01   -124.70  4.5546E-01   -124.70
  130.00     50.00     -6.05    -0.69     0.42      0.0000     61.66 LINEAR  2.4800E-01   -124.73  4.5980E-01   -124.73
  135.00     50.00     -5.14    -0.60     0.71      0.0000     59.32 LINEAR  2.7549E-01   -124.77  4.6430E-01   -124.77
  140.00     50.00     -4.36    -0.52     0.98      0.0000     57.27 LINEAR  3.0136E-01   -124.80  4.6884E-01   -124.80
  145.00     50.00     -3.69    -0.44     1.24      0.0000     55.50 LINEAR  3.2530E-01   -124.83  4.7326E-01   -124.83
  150.00     50.00     -3.13    -0.36     1.48      0.0000     53.99 LINEAR  3.4695E-01   -124.86  4.7744E-01   -124.86
  155.00     50.00     -2.67    -0.29     1.69      0.0000     52.75 LINEAR  3.6597E-01   -124.89  4.8124E-01   -124.89
  160.00     50.00     -2.30    -0.23     1.87      0.0000     51.74 LINEAR  3.8205E-01   -124.91  4.8453E-01   -124.91
  165.00     50.00     -2.01    -0.19     2.01      0.0000     50.97 LINEAR  3.9489E-01   -124.93  4.8722E-01   -124.93
  170.00     50.00     -1.81    -0.15     2.11      0.0000     50.43 LINEAR  4.0425E-01   -124.94  4.8920E-01   -124.94
  175.00     50.00     -1.69    -0.13     2.17      0.0000     50.11 LINEAR  4.0995E-01   -124.95  4.9042E-01   -124.95
  180.00     50.00     -1.65    -0.12     2.19      0.0000     50.00 LINEAR  4.1186E-01   -124.95  4.9083E-01   -124.95
    0.00     55.00     -2.63     0.46     2.19      0.0000    -55.00 LINEAR  3.6751E-01     55.05  5.2486E-01   -124.95
    5.00     55.00     -2.67     0.46     2.18      0.0000    -55.10 LINEAR  3.6587E-01     55.05  5.2451E-01   -124.95
   10.00     55.00     -2.79     0.44     2.13      0.0000    -55.41 LINEAR  3.6097E-01     55.06  5.2347E-01   -124.94
   15.00     55.00     -2.99     0.41     2.05      0.0000    -55.93 LINEAR  3.5291E-01     55.07  5.2178E-01   -124.93
   20.00     55.00     -3.26     0.37     1.93      0.0000    -56.66 LINEAR  3.4182E-01     55.08  5.1949E-01   -124.92
   25.00     55.00     -3.63     0.32     1.79      0.0000    -57.60 LINEAR  3.2789E-01     55.10  5.1668E-01   -124.90
   30.00     55.00     -4.08     0.27     1.63      0.0000    -58.77 LINEAR  3.1135E-01     55.12  5.1343E-01   -124.88
   35.00     55.00     -4.62     0.21     1.44      0.0000    -60.16 LINEAR  2.9244E-01     55.14  5.0986E-01   -124.86
   40.00     55.00     -5.27     0.14     1.24      0.0000    -61.79 LINEAR  2.7145E-01     55.17  5.0607E-01   -124.83
   45.00     55.00     -6.03     0.08     1.03      0.0000    -63.66 LINEAR  2.4864E-01     55.19  5.0218E-01   -124.81
   50.00     55.00     -6.92     0.01     0.81      0.0000    -65.77 LINEAR  2.2428E-01     55.22  4.9832E-01   -124.78
   55.00     55.00     -7.98    -0.06     0.59      0.0000    -68.12 LINEAR  1.9864E-01     55.25  4.9459E-01   -124.75
   60.00     55.00     -9.23    -0.12     0.39      0.0000    -70.70 LINEAR  1.7194E-01     55.27  4.9110E-01   -124.73
   65.00     55.00    -10.75    -0.17     0.19      0.0000    -73.52 LINEAR  1.4440E-01     55.29  4.8797E-01   -124.71
   70.00     55.00    -12.63    -0.22     0.02      0.0000    -76.53 LINEAR  1.1622E-01     55.31  4.8528E-01   -124.69
   75.00     55.00    -15.09    -0.26    -0.12      0.0000    -79.73 LINEAR  8.7551E-02     55.33  4.8310E-01   -124.67
   80.00     55.00    -18.59    -0.29    -0.22      0.0000    -83.07 LINEAR  5.8546E-02     55.34  4.8150E-01   -124.66
   85.00     55.00    -24.60    -0.31    -0.29      0.0000    -86.51 LINEAR  2.9325E-02     55.35  4.8052E-01   -124.65
   90.00     55.00   -999.99    -0.31    -0.31      0.0000     90.00 LINEAR  1.7159E-12   -124.65  4.8019E-01   -124.65
   95.00     55.00    -24.60    -0.31    -0.29      0.0000     86.51 LINEAR  2.9325E-02   -124.65  4.8052E-01   -124.65
  100.00     55.00    -18.59    -0.29    -0.22      0.0000     83.07 LINEAR  5.8546E-02   -124.66  4.8150E-01   -124.66
  105.00     55.00    -15.09    -0.26    -0.12      0.0000     79.73 LINEAR  8.7551E-02   -124.67  4.8310E-01   -124.67
  110.00     55.00    -12.63    -0.22     0.02      0.0000     76.53 LINEAR  1.1622E-01   -124.69  4.8528E-01   -124.69
  115.00     55.00    -10.75    -0.17     0.19      0.0000     73.52 LINEAR  1.4440E-01   -124.71  4.8797E-01   -124.71
  120.00     55.00     -9.23    -0.12     0.39      0.0000     70.70 LINEAR  1.7194E-01   -124.73  4.9110E-01   -124.73
  125.00     55.00     -7.98    -0.06     0.59      0.0000     68.12 LINEAR  1.9864E-01   -124.75  4.9459E-01   -124.75
  130.00     55.00     -6.92     0.01     0.81      0.0000     65.77 LINEAR  2.2428E-01   -124.78  4.9832E-01   -124.78
  135.00     55.00     -6.03     0.08     1.03      0.0000     63.66 LINEAR  2.4864E-01   -124.81  5.0218E-01   -124.81
  140.00     55.00     -5.27     0.14     1.24      0.0000     61.79 LINEAR  2.7145E-01   -124.83  5.0607E-01   -124.83
  145.00     55.00     -4.62     0.21     1.44      0.0000     60.16 LINEAR  2.9244E-01   -124.86  5.0986E-01   -124.86
  150.00     55.00     -4.08     0.27     1.63      0.0000     58.77 LINEAR  3.1135E-01   -124.88  5.1343E-01   -124.88
  155.00     55.00     -3.63     0.32     1.79      0.0000     57.60 LINEAR  3.2789E-01   -124.90  5.1668E-01   -124.90
  160.00     55.00     -3.26     0.37     1.93      0.0000     56.66 LINEAR  3.4182E-01   -124.92  5.1949E-01   -124.92
  165.00     55.00     -2.99     0.41     2.05      0.0000     55.93 LINEAR  3.5291E-01   -124.93  5.2178E-01   -124.93
  170.00     55.00     -2.79     0.44     2.13      0.0000     55.41 LINEAR  3.6097E-01   -124.94  5.2347E-01   -124.94
  175.00     55.00     -2.67     0.46     2.18      0.0000     55.10 LINEAR  3.6587E-01   -124.95  5.2451E-01   -124.95
  180.00     55.00     -2.63     0.46     2.19      0.0000     55.00 LINEAR  3.6751E-01   -124.95  5.2486E-01   -124.95
    0.00     60.00     -3.83     0.94     2.19      0.0000    -60.00 LINEAR  3.2037E-01     55.05  5.5489E-01   -124.95
    5.00     60.00     -3.86     0.94     2.18      0.0000    -60.09 LINEAR  3.1899E-01     55.05  5.5461E-01   -124.95
   10.00     60.00     -3.98     0.93     2.14      0.0000    -60.38 LINEAR  3.1487E-01     55.05  5.5378E-01   -124.95
   15.00     60.00     -4.17     0.91     2.08      0.0000    -60.85 LINEAR  3.0807E-01     55.06  5.5242E-01   -124.94
   20.00     60.00     -4.44     0.88     2.00      0.0000    -61.52 LINEAR  2.9871E-01     55.07  5.5058E-01   -124.93
   25.00     60.00     -4.79     0.84     1.89      0.0000    -62.38 LINEAR  2.8691E-01     55.09  5.4831E-01   -124.91
   30.00     60.00     -5.22     0.80     1.77      0.0000    -63.43 LINEAR  2.7285E-01     55.10  5.4570E-01   -124.90
   35.00     60.00     -5.75     0.75     1.63      0.0000    -64.69 LINEAR  2.5672E-01     55.12  5.4281E-01   -124.88
   40.00     60.00     -6.38     0.70     1.48      0.0000    -66.14 LINEAR  2.3872E-01     55.14  5.3975E-01   -124.86
   45.00     60.00     -7.13     0.65     1.32      0.0000    -67.79 LINEAR  2.1907E-01     55.16  5.3661E-01   -124.84
   50.00     60.00     -8.01     0.60     1.16      0.0000    -69.64 LINEAR  1.9798E-01     55.18  5.3348E-01   -124.82
   55.00     60.00     -9.05     0.55     1.00      0.0000    -71.68 LINEAR  1.7566E-01     55.20  5.3045E-01   -124.80
   60.00     60.00    -10.29     0.51     0.85      0.0000    -73.90 LINEAR  1.5231E-01     55.22  5.2762E-01   -124.78
   65.00     60.00    -11.79     0.46     0.72      0.0000    -76.29 LINEAR  1.2812E-01     55.23  5.2508E-01   -124.77
   70.00     60.00    -13.66     0.43     0.59      0.0000    -78.83 LINEAR  1.0325E-01     55.25  5.2289E-01   -124.75
   75.00     60.00    -16.11     0.40     0.49      0.0000    -81.50 LINEAR  7.7870E-02     55.26  5.2111E-01   -124.74
   80.00     60.00    -19.60     0.38     0.42      0.0000    -84.27 LINEAR  5.2114E-02     55.27  5.1981E-01   -124.73
   85.00     60.00    -25.60     0.36     0.37      0.0000    -87.12 LINEAR  2.6116E-02     55.27  5.1901E-01   -124.73
   90.00     60.00   -999.99     0.36     0.36      0.0000     90.00 LINEAR  1.5285E-12   -124.73  5.1874E-01   -124.73
   95.00     60.00    -25.60     0.36     0.37      0.0000     87.12 LINEAR  2.6116E-02   -124.73  5.1901E-01   -124.73
  100.00     60.00    -19.60     0.38     0.42      0.0000     84.27 LINEAR  5.2114E-02   -124.73  5.1981E-01   -124.73
  105.00     60.00    -16.11     0.40     0.49      0.0000     81.50 LINEAR  7.7870E-02   -124.74  5.2111E-01   -124.74
  110.00     60.00    -13.66     0.43     0.59      0.0000     78.83 LINEAR  1.0325E-01   -124.75  5.2289E-01   -124.75
  115.00     60.00    -11.79     0.46     0.72      0.0000     76.29 LINEAR  1.2812E-01   -124.77  5.2508E-01   -124.77
  120.00     60.00    -10.29     0.51     0.85      0.0000     73.90 LINEAR  1.5231E-01   -124.78  5.2762E-01   -124.78
  125.00     60.00     -9.05     0.55     1.00      0.0000     71.68 LINEAR  1.7566E-01   -124.80  5.3045E-01   -124.80
  130.00     60.00     -8.01     0.60     1.16      0.0000     69.64 LINEAR  1.9798E-01   -124.82  5.3348E-01   -124.82
  135.00     60.00     -7.13     0.65     1.32      0.0000     67.79 LINEAR  2.1907E-01   -124.84  5.3661E-01   -124.84
  140.00     60.00     -6.38     0.70     1.48      0.0000     66.14 LINEAR  2.3872E-01   -124.86  5.3975E-01   -124.86
  145.00     60.00     -5.75     0.75     1.63      0.0000     64.69 LINEAR  2.5672E-01   -124.88  5.4281E-01   -124.88
  150.00     60.00     -5.22     0.80     1.77      0.0000     63.43 LINEAR  2.7285E-01   -124.90  5.4570E-01   -124.90
  155.00     60.00     -4.79     0.84     1.89      0.0000     62.38 LINEAR  2.8691E-01   -124.91  5.4831E-01   -124.91
  160.00     60.00     -4.44     0.88     2.00      0.0000     61.52 LINEAR  2.9871E-01   -124.93  5.5058E-01   -124.93
  165.00     60.00     -4.17     0.91     2.08      0.0000     60.85 LINEAR  3.0807E-01   -124.94  5.5242E-01   -124.94
  170.00     60.00     -3.98     0.93     2.14      0.0000     60.38 LINEAR  3.1487E-01   -124.95  5.5378E-01   -124.95
  175.00     60.00     -3.86     0.94     2.18      0.0000     60.09 LINEAR  3.1899E-01   -124.95  5.5461E-01   -124.95
  180.00     60.00     -3.83     0.94     2.19      0.0000     60.00 LINEAR  3.2037E-01   -124.95  5.5489E-01   -124.95
    0.00     65.00     -5.29     1.34     2.19      0.0000    -65.00 LINEAR  2.7079E-01     55.05  5.8070E-01   -124.95
    5.00     65.00     -5.32     1.34     2.18      0.0000    -65.08 LINEAR  2.6966E-01     55.05  5.8049E-01   -124.95
   10.00     65.00     -5.43     1.33     2.16      0.0000    -65.33 LINEAR  2.6629E-01     55.05  5.7987E-01   -124.95
   15.00     65.00     -5.62     1.31     2.11      0.0000    -65.75 LINEAR  2.6073E-01     55.06  5.7885E-01   -124.94
   20.00     65.00     -5.88     1.29     2.05      0.0000    -66.34 LINEAR  2.5304E-01     55.07  5.7747E-01   -124.93
   25.00     65.00     -6.22     1.27     1.98      0.0000    -67.09 LINEAR  2.4333E-01     55.08  5.7578E-01   -124.92
   30.00     65.00     -6.64     1.24     1.89      0.0000    -68.01 LINEAR  2.3173E-01     55.09  5.7382E-01   -124.91
   35.00     65.00     -7.16     1.20     1.79      0.0000    -69.09 LINEAR  2.1836E-01     55.10  5.7165E-01   -124.90
   40.00     65.00     -7.77     1.17     1.69      0.0000    -70.34 LINEAR  2.0338E-01     55.11  5.6935E-01   -124.89
   45.00     65.00     -8.51     1.13     1.58      0.0000    -71.75 LINEAR  1.8695E-01     55.13  5.6699E-01   -124.87
   50.00     65.00     -9.37     1.10     1.47      0.0000    -73.31 LINEAR  1.6924E-01     55.14  5.6463E-01   -124.86
   55.00     65.00    -10.39     1.06     1.36      0.0000    -75.03 LINEAR  1.5041E-01     55.15  5.6235E-01   -124.85
   60.00     65.00    -11.62     1.03     1.26      0.0000    -76.88 LINEAR  1.3062E-01     55.17  5.6021E-01   -124.83
   65.00     65.00    -13.11     1.00     1.16      0.0000    -78.85 LINEAR  1.1002E-01     55.18  5.5829E-01   -124.82
   70.00     65.00    -14.97     0.97     1.08      0.0000    -80.94 LINEAR  8.8775E-02     55.19  5.5663E-01   -124.81
   75.00     65.00    -17.42     0.95     1.01      0.0000    -83.12 LINEAR  6.7018E-02     55.20  5.5529E-01   -124.80
   80.00     65.00    -20.90     0.93     0.96      0.0000    -85.37 LINEAR  4.4884E-02     55.20  5.5430E-01   -124.80
   85.00     65.00    -26.90     0.93     0.93      0.0000    -87.67 LINEAR  2.2503E-02     55.21  5.5370E-01   -124.79
   90.00     65.00   -999.99     0.92     0.92      0.0000     90.00 LINEAR  1.3172E-12   -124.79  5.5350E-01   -124.79
   95.00     65.00    -26.90     0.93     0.93      0.0000     87.67 LINEAR  2.2503E-02   -124.79  5.5370E-01   -124.79
  100.00     65.00    -20.90     0.93     0.96      0.0000     85.37 LINEAR  4.4884E-02   -124.80  5.5430E-01   -124.80
  105.00     65.00    -17.42     0.95     1.01      0.0000     83.12 LINEAR  6.7018E-02   -124.80  5.5529E-01   -124.80
  110.00     65.00    -14.97     0.97     1.08      0.0000     80.94 LINEAR  8.8775E-02   -124.81  5.5663E-01   -124.81
  115.00     65.00    -13.11     1.00     1.16      0.0000     78.85 LINEAR  1.1002E-01   -124.82  5.5829E-01   -124.82
  120.00     65.00    -11.62     1.03     1.26      0.0000     76.88 LINEAR  1.3062E-01   -124.83  5.6021E-01   -124.83
  125.00     65.00    -10.39     1.06     1.36      0.0000     75.03 LINEAR  1.5041E-01   -124.85  5.6235E-01   -124.85
  130.00     65.00     -9.37     1.10     1.47      0.0000     73.31 LINEAR  1.6924E-01   -124.86  5.6463E-01   -124.86
  135.00     65.00     -8.51     1.13     1.58      0.0000     71.75 LINEAR  1.8695E-01   -124.87  5.6699E-01   -124.87
  140.00     65.00     -7.77     1.17     1.69      0.0000     70.34 LINEAR  2.0338E-01   -124.89  5.6935E-01   -124.89
  145.00     65.00     -7.16     1.20     1.79      0.0000     69.09 LINEAR  2.1836E-01   -124.90  5.7165E-01   -124.90
  150.00     65.00     -6.64     1.24     1.89      0.0000     68.01 LINEAR  2.3173E-01   -124.91  5.7382E-01   -124.91
  155.00     65.00     -6.22     1.27     1.98      0.0000     67.09 LINEAR  2.4333E-01   -124.92  5.7578E-01   -124.92
  160.00     65.00     -5.88     1.29     2.05      0.0000     66.34 LINEAR  2.5304E-01   -124.93  5.7747E-01   -124.93
  165.00     65.00     -5.62     1.31     2.11      0.0000     65.75 LINEAR  2.6073E-01   -124.94  5.7885E-01   -124.94
  170.00     65.00     -5.43     1.33     2.16      0.0000     65.33 LINEAR  2.6629E-01   -124.95  5.7987E-01   -124.95
  175.00     65.00     -5.32     1.34     2.18      0.0000     65.08 LINEAR  2.6966E-01   -124.95  5.8049E-01   -124.95
  180.00     65.00     -5.29     1.34     2.19      0.0000     65.00 LINEAR  2.7079E-01   -124.95  5.8070E-01   -124.95
    0.00     70.00     -7.13     1.65     2.19      0.0000    -70.00 LINEAR  2.1914E-01     55.05  6.0210E-01   -124.95
    5.00     70.00     -7.16     1.65     2.19      0.0000    -70.07 LINEAR  2.1826E-01     55.05  6.0195E-01   -124.95
   10.00     70.00     -7.27     1.65     2.17      0.0000    -70.28 LINEAR  2.1561E-01     55.05  6.0153E-01   -124.95
   15.00     70.00     -7.44     1.64     2.14      0.0000    -70.63 LINEAR  2.1124E-01     55.05  6.0084E-01   -124.95
   20.00     70.00     -7.70     1.62     2.10      0.0000    -71.12 LINEAR  2.0518E-01     55.06  5.9990E-01   -124.94
   25.00     70.00     -8.03     1.60     2.05      0.0000    -71.74 LINEAR  1.9751E-01     55.07  5.9875E-01   -124.93
   30.00     70.00     -8.44     1.59     2.00      0.0000    -72.50 LINEAR  1.8831E-01     55.07  5.9741E-01   -124.93
   35.00     70.00     -8.95     1.56     1.93      0.0000    -73.40 LINEAR  1.7768E-01     55.08  5.9594E-01   -124.92
   40.00     70.00     -9.55     1.54     1.87      0.0000    -74.42 LINEAR  1.6572E-01     55.09  5.9437E-01   -124.91
   45.00     70.00    -10.27     1.52     1.80      0.0000    -75.57 LINEAR  1.5255E-01     55.10  5.9275E-01   -124.90
   50.00     70.00    -11.12     1.49     1.73      0.0000    -76.83 LINEAR  1.3830E-01     55.11  5.9114E-01   -124.89
   55.00     70.00    -12.14     1.47     1.66      0.0000    -78.21 LINEAR  1.2308E-01     55.12  5.8958E-01   -124.88
   60.00     70.00    -13.35     1.45     1.59      0.0000    -79.69 LINEAR  1.0703E-01     55.13  5.8812E-01   -124.87
   65.00     70.00    -14.83     1.43     1.53      0.0000    -81.26 LINEAR  9.0262E-02     55.13  5.8680E-01   -124.87
   70.00     70.00    -16.68     1.41     1.48      0.0000    -82.90 LINEAR  7.2907E-02     55.14  5.8567E-01   -124.86
   75.00     70.00    -19.12     1.40     1.44      0.0000    -84.62 LINEAR  5.5084E-02     55.14  5.8474E-01   -124.86
   80.00     70.00    -22.60     1.39     1.41      0.0000    -86.38 LINEAR  3.6915E-02     55.15  5.8407E-01   -124.85
   85.00     70.00    -28.59     1.38     1.39      0.0000    -88.18 LINEAR  1.8515E-02     55.15  5.8365E-01   -124.85
   90.00     70.00   -999.99     1.38     1.38      0.0000     90.00 LINEAR  1.0839E-12   -124.85  5.8351E-01   -124.85
   95.00     70.00    -28.59     1.38     1.39      0.0000     88.18 LINEAR  1.8515E-02   -124.85  5.8365E-01   -124.85
  100.00     70.00    -22.60     1.39     1.41      0.0000     86.38 LINEAR  3.6915E-02   -124.85  5.8407E-01   -124.85
  105.00     70.00    -19.12     1.40     1.44      0.0000     84.62 LINEAR  5.5084E-02   -124.86  5.8474E-01   -124.86
  110.00     70.00    -16.68     1.41     1.48      0.0000     82.90 LINEAR  7.2907E-02   -124.86  5.8567E-01   -124.86
  115.00     70.00    -14.83     1.43     1.53      0.0000     81.26 LINEAR  9.0262E-02   -124.87  5.8680E-01   -124.87
  120.00     70.00    -13.35     1.45     1.59      0.0000     79.69 LINEAR  1.0703E-01   -124.87  5.8812E-01   -124.87
  125.00     70.00    -12.14     1.47     1.66      0.0000     78.21 LINEAR  1.2308E-01   -124.88  5.8958E-01   -124.88
  130.00     70.00    -11.12     1.49     1.73      0.0000     76.83 LINEAR  1.3830E-01   -124.89  5.9114E-01   -124.89
  135.00     70.00    -10.27     1.52     1.80      0.0000     75.57 LINEAR  1.5255E-01   -124.90  5.9275E-01   -124.90
  140.00     70.00     -9.55     1.54     1.87      0.0000     74.42 LINEAR  1.6572E-01   -124.91  5.9437E-01   -124.91
  145.00     70.00     -8.95     1.56     1.93      0.0000     73.40 LINEAR  1.7768E-01   -124.92  5.9594E-01   -124.92
  150.00     70.00     -8.44     1.59     2.00      0.0000     72.50 LINEAR  1.8831E-01   -124.93  5.9741E-01   -124.93
  155.00     70.00     -8.03     1.60     2.05      0.0000     71.74 LINEAR  1.9751E-01   -124.93  5.9875E-01   -124.93
  160.00     70.00     -7.70     1.62     2.10      0.0000     71.12 LINEAR  2.0518E-01   -124.94  5.9990E-01   -124.94
  165.00     70.00     -7.44     1.64     2.14      0.0000     70.63 LINEAR  2.1124E-01   -124.95  6.0084E-01   -124.95
  170.00     70.00     -7.27     1.65     2.17      0.0000     70.28 LINEAR  2.1561E-01   -124.95  6.0153E-01   -124.95
  175.00     70.00     -7.16     1.65     2.19      0.0000     70.07 LINEAR  2.1826E-01   -124.95  6.0195E-01   -124.95
  180.00     70.00     -7.13     1.65     2.19      0.0000     70.00 LINEAR  2.1914E-01   -124.95  6.0210E-01   -124.95
    0.00     75.00     -9.55     1.89     2.19      0.0000    -75.00 LINEAR  1.6583E-01     55.05  6.1890E-01   -124.95
    5.00     75.00     -9.58     1.89     2.19      0.0000    -75.05 LINEAR  1.6518E-01     55.05  6.1882E-01   -124.95
   10.00     75.00     -9.68     1.89     2.18      0.0000    -75.22 LINEAR  1.6323E-01     55.05  6.1857E-01   -124.95
   15.00     75.00     -9.86     1.88     2.16      0.0000    -75.49 LINEAR  1.5999E-01     55.05  6.1816E-01   -124.95
   20.00     75.00    -10.10     1.87     2.14      0.0000    -75.87 LINEAR  1.5551E-01     55.05  6.1761E-01   -124.95
   25.00     75.00    -10.43     1.86     2.11      0.0000    -76.35 LINEAR  1.4982E-01     55.06  6.1693E-01   -124.94
   30.00     75.00    -10.83     1.85     2.08      0.0000    -76.94 LINEAR  1.4298E-01     55.06  6.1614E-01   -124.94
   35.00     75.00    -11.33     1.84     2.05      0.0000    -77.62 LINEAR  1.3505E-01     55.07  6.1527E-01   -124.93
   40.00     75.00    -11.93     1.83     2.01      0.0000    -78.40 LINEAR  1.2610E-01     55.07  6.1435E-01   -124.93
   45.00     75.00    -12.63     1.81     1.97      0.0000    -79.27 LINEAR  1.1622E-01     55.08  6.1339E-01   -124.92
   50.00     75.00    -13.48     1.80     1.93      0.0000    -80.23 LINEAR  1.0548E-01     55.08  6.1244E-01   -124.92
   55.00     75.00    -14.48     1.79     1.89      0.0000    -81.26 LINEAR  9.3983E-02     55.09  6.1151E-01   -124.91
   60.00     75.00    -15.68     1.78     1.85      0.0000    -82.37 LINEAR  8.1811E-02     55.09  6.1065E-01   -124.91
   65.00     75.00    -17.16     1.76     1.82      0.0000    -83.54 LINEAR  6.9061E-02     55.10  6.0987E-01   -124.90
   70.00     75.00    -19.00     1.76     1.79      0.0000    -84.76 LINEAR  5.5829E-02     55.10  6.0919E-01   -124.90
   75.00     75.00    -21.43     1.75     1.77      0.0000    -86.03 LINEAR  4.2210E-02     55.10  6.0865E-01   -124.90
   80.00     75.00    -24.90     1.74     1.75      0.0000    -87.34 LINEAR  2.8301E-02     55.10  6.0824E-01   -124.90
   85.00     75.00    -30.90     1.74     1.74      0.0000    -88.66 LINEAR  1.4199E-02     55.11  6.0800E-01   -124.89
   90.00     75.00   -999.99     1.74     1.74      0.0000     90.00 LINEAR  8.3130E-13   -124.89  6.0791E-01   -124.89
   95.00     75.00    -30.90     1.74     1.74      0.0000     88.66 LINEAR  1.4199E-02   -124.89  6.0800E-01   -124.89
  100.00     75.00    -24.90     1.74     1.75      0.0000     87.34 LINEAR  2.8301E-02   -124.90  6.0824E-01   -124.90
  105.00     75.00    -21.43     1.75     1.77      0.0000     86.03 LINEAR  4.2210E-02   -124.90  6.0865E-01   -124.90
  110.00     75.00    -19.00     1.76     1.79      0.0000     84.76 LINEAR  5.5829E-02   -124.90  6.0919E-01   -124.90
  115.00     75.00    -17.16     1.76     1.82      0.0000     83.54 LINEAR  6.9061E-02   -124.90  6.0987E-01   -124.90
  120.00     75.00    -15.68     1.78     1.85      0.0000     82.37 LINEAR  8.1811E-02   -124.91  6.1065E-01   -124.91
  125.00     75.00    -14.48     1.79     1.89      0.0000     81.26 LINEAR  9.3983E-02   -124.91  6.1151E-01   -124.91
  130.00     75.00    -13.48     1.80     1.93      0.0000     80.23 LINEAR  1.0548E-01   -124.92  6.1244E-01   -124.92
  135.00     75.00    -12.63     1.81     1.97      0.0000     79.27 LINEAR  1.1622E-01   -124.92  6.1339E-01   -124.92
  140.00     75.00    -11.93     1.83     2.01      0.0000     78.40 LINEAR  1.2610E-01   -124.93  6.1435E-01   -124.93
  145.00     75.00    -11.33     1.84     2.05      0.0000     77.62 LINEAR  1.3505E-01   -124.93  6.1527E-01   -124.93
  150.00     75.00    -10.83     1.85     2.08      0.0000     76.94 LINEAR  1.4298E-01   -124.94  6.1614E-01   -124.94
  155.00     75.00    -10.43     1.86     2.11      0.0000     76.35 LINEAR  1.4982E-01   -124.94  6.1693E-01   -124.94
  160.00     75.00    -10.10     1.87     2.14      0.0000     75.87 LINEAR  1.5551E-01   -124.95  6.1761E-01   -124.95
  165.00     75.00     -9.86     1.88     2.16      0.0000     75.49 LINEAR  1.5999E-01   -124.95  6.1816E-01   -124.95
  170.00     75.00     -9.68     1.89     2.18      0.0000     75.22 LINEAR  1.6323E-01   -124.95  6.1857E-01   -124.95
  175.00     75.00     -9.58     1.89     2.19      0.0000     75.05 LINEAR  1.6518E-01   -124.95  6.1882E-01   -124.95
  180.00     75.00     -9.55     1.89     2.19      0.0000     75.00 LINEAR  1.6583E-01   -124.95  6.1890E-01   -124.95
    0.00     80.00    -13.01     2.06     2.19      0.0000    -80.00 LINEAR  1.1126E-01     55.05  6.3100E-01   -124.95
    5.00     80.00    -13.05     2.06     2.19      0.0000    -80.04 LINEAR  1.1083E-01     55.05  6.3096E-01   -124.95
   10.00     80.00    -13.15     2.06     2.19      0.0000    -80.15 LINEAR  1.0955E-01     55.05  6.3085E-01   -124.95
   15.00     80.00    -13.32     2.06     2.18      0.0000    -80.33 LINEAR  1.0741E-01     55.05  6.3066E-01   -124.95
   20.00     80.00    -13.56     2.05     2.17      0.0000    -80.59 LINEAR  1.0445E-01     55.05  6.3041E-01   -124.95
   25.00     80.00    -13.88     2.05     2.16      0.0000    -80.92 LINEAR  1.0069E-01     55.05  6.3010E-01   -124.95
   30.00     80.00    -14.28     2.04     2.14      0.0000    -81.32 LINEAR  9.6163E-02     55.05  6.2973E-01   -124.95
   35.00     80.00    -14.77     2.04     2.13      0.0000    -81.78 LINEAR  9.0900E-02     55.06  6.2933E-01   -124.94
   40.00     80.00    -15.36     2.03     2.11      0.0000    -82.31 LINEAR  8.4949E-02     55.06  6.2891E-01   -124.94
   45.00     80.00    -16.06     2.03     2.09      0.0000    -82.89 LINEAR  7.8359E-02     55.06  6.2847E-01   -124.94
   50.00     80.00    -16.89     2.02     2.07      0.0000    -83.53 LINEAR  7.1181E-02     55.06  6.2803E-01   -124.94
   55.00     80.00    -17.89     2.01     2.06      0.0000    -84.22 LINEAR  6.3474E-02     55.07  6.2760E-01   -124.93
   60.00     80.00    -19.09     2.01     2.04      0.0000    -84.96 LINEAR  5.5296E-02     55.07  6.2720E-01   -124.93
   65.00     80.00    -20.55     2.00     2.03      0.0000    -85.74 LINEAR  4.6712E-02     55.07  6.2684E-01   -124.93
   70.00     80.00    -22.39     2.00     2.01      0.0000    -86.55 LINEAR  3.7784E-02     55.07  6.2653E-01   -124.93
   75.00     80.00    -24.82     2.00     2.00      0.0000    -87.39 LINEAR  2.8581E-02     55.07  6.2628E-01   -124.93
   80.00     80.00    -28.29     1.99     2.00      0.0000    -88.25 LINEAR  1.9170E-02     55.07  6.2609E-01   -124.93
   85.00     80.00    -34.28     1.99     1.99      0.0000    -89.12 LINEAR  9.6200E-03     55.07  6.2598E-01   -124.93
   90.00     80.00   -999.99     1.99     1.99      0.0000     90.00 LINEAR  5.6327E-13   -124.93  6.2594E-01   -124.93
   95.00     80.00    -34.28     1.99     1.99      0.0000     89.12 LINEAR  9.6200E-03   -124.93  6.2598E-01   -124.93
  100.00     80.00    -28.29     1.99     2.00      0.0000     88.25 LINEAR  1.9170E-02   -124.93  6.2609E-01   -124.93
[...]
  100.00    340.00    -15.61    -9.18    -8.29      0.0000    -64.49 LINEAR  8.2502E-02   -124.10  1.7293E-01     55.90
  105.00    340.00    -12.06    -9.10    -7.32      0.0000    -54.58 LINEAR  1.2412E-01   -124.14  1.7455E-01     55.86
  110.00    340.00     -9.53    -8.99    -6.24      0.0000    -46.78 LINEAR  1.6610E-01   -124.19  1.7676E-01     55.81
  115.00    340.00     -7.56    -8.86    -5.15      0.0000    -40.74 LINEAR  2.0845E-01   -124.25  1.7952E-01     55.75
  120.00    340.00     -5.94    -8.70    -4.10      0.0000    -36.05 LINEAR  2.5105E-01   -124.31  1.8275E-01     55.69
  125.00    340.00     -4.58    -8.53    -3.11      0.0000    -32.40 LINEAR  2.9370E-01   -124.39  1.8637E-01     55.61
  130.00    340.00     -3.41    -8.35    -2.20      0.0000    -29.52 LINEAR  3.3605E-01   -124.46  1.9028E-01     55.54
  135.00    340.00     -2.40    -8.17    -1.38      0.0000    -27.24 LINEAR  3.7763E-01   -124.54  1.9438E-01     55.46
  140.00    340.00     -1.52    -7.98    -0.64      0.0000    -25.41 LINEAR  4.1785E-01   -124.62  1.9853E-01     55.38
  145.00    340.00     -0.76    -7.81     0.02      0.0000    -23.96 LINEAR  4.5601E-01   -124.69  2.0262E-01     55.31
  150.00    340.00     -0.11    -7.64     0.59      0.0000    -22.80 LINEAR  4.9135E-01   -124.75  2.0650E-01     55.25
  155.00    340.00      0.43    -7.49     1.08      0.0000    -21.88 LINEAR  5.2306E-01   -124.81  2.1006E-01     55.19
  160.00    340.00      0.87    -7.37     1.48      0.0000    -21.17 LINEAR  5.5035E-01   -124.86  2.1316E-01     55.14
  165.00    340.00      1.21    -7.26     1.79      0.0000    -20.65 LINEAR  5.7245E-01   -124.90  2.1571E-01     55.10
  170.00    340.00      1.46    -7.19     2.01      0.0000    -20.28 LINEAR  5.8875E-01   -124.93  2.1759E-01     55.07
  175.00    340.00      1.60    -7.14     2.15      0.0000    -20.07 LINEAR  5.9873E-01   -124.95  2.1875E-01     55.05
  180.00    340.00      1.65    -7.13     2.19      0.0000    -20.00 LINEAR  6.0210E-01   -124.95  2.1914E-01     55.05
    0.00    345.00      1.89    -9.55     2.19      0.0000     15.00 LINEAR  6.1890E-01     55.05  1.6583E-01     55.05
    5.00    345.00      1.84    -9.56     2.15      0.0000     15.05 LINEAR  6.1538E-01     55.05  1.6552E-01     55.05
   10.00    345.00      1.69    -9.61     2.00      0.0000     15.22 LINEAR  6.0494E-01     55.07  1.6459E-01     55.07
   15.00    345.00      1.45    -9.69     1.77      0.0000     15.50 LINEAR  5.8791E-01     55.10  1.6309E-01     55.10
   20.00    345.00      1.10    -9.80     1.44      0.0000     15.92 LINEAR  5.6482E-01     55.14  1.6106E-01     55.14
   25.00    345.00      0.65    -9.94     1.01      0.0000     16.47 LINEAR  5.3637E-01     55.20  1.5858E-01     55.20
   30.00    345.00      0.10   -10.09     0.49      0.0000     17.19 LINEAR  5.0336E-01     55.26  1.5574E-01     55.26
   35.00    345.00     -0.56   -10.27    -0.12      0.0000     18.11 LINEAR  4.6664E-01     55.33  1.5264E-01     55.33
   40.00    345.00     -1.33   -10.45    -0.83      0.0000     19.28 LINEAR  4.2708E-01     55.40  1.4938E-01     55.40
   45.00    345.00     -2.22   -10.65    -1.64      0.0000     20.75 LINEAR  3.8549E-01     55.48  1.4608E-01     55.48
   50.00    345.00     -3.24   -10.84    -2.55      0.0000     22.63 LINEAR  3.4262E-01     55.57  1.4282E-01     55.57
   55.00    345.00     -4.42   -11.04    -3.57      0.0000     25.04 LINEAR  2.9907E-01     55.65  1.3971E-01     55.65
   60.00    345.00     -5.80   -11.22    -4.70      0.0000     28.19 LINEAR  2.5534E-01     55.73  1.3684E-01     55.73
   65.00    345.00     -7.42   -11.38    -5.95      0.0000     32.38 LINEAR  2.1178E-01     55.80  1.3427E-01     55.80
   70.00    345.00     -9.40   -11.52    -7.32      0.0000     38.08 LINEAR  1.6860E-01     55.86  1.3209E-01     55.86
   75.00    345.00    -11.94   -11.64    -8.78      0.0000     45.99 LINEAR  1.2589E-01     55.92  1.3033E-01     55.92
   80.00    345.00    -15.49   -11.73   -10.20      0.0000     57.05 LINEAR  8.3630E-02     55.96  1.2905E-01     55.96
   85.00    345.00    -21.53   -11.78   -11.34      0.0000     71.98 LINEAR  4.1720E-02     55.98  1.2826E-01     55.98
   90.00    345.00   -999.99   -11.80   -11.80      0.0000    -90.00 LINEAR  2.4379E-12   -124.01  1.2800E-01     55.99
   95.00    345.00    -21.53   -11.78   -11.34      0.0000    -71.98 LINEAR  4.1720E-02   -124.02  1.2826E-01     55.98
  100.00    345.00    -15.49   -11.73   -10.20      0.0000    -57.05 LINEAR  8.3630E-02   -124.04  1.2905E-01     55.96
  105.00    345.00    -11.94   -11.64    -8.78      0.0000    -45.99 LINEAR  1.2589E-01   -124.08  1.3033E-01     55.92
  110.00    345.00     -9.40   -11.52    -7.32      0.0000    -38.08 LINEAR  1.6860E-01   -124.14  1.3209E-01     55.86
  115.00    345.00     -7.42   -11.38    -5.95      0.0000    -32.38 LINEAR  2.1178E-01   -124.20  1.3427E-01     55.80
  120.00    345.00     -5.80   -11.22    -4.70      0.0000    -28.19 LINEAR  2.5534E-01   -124.27  1.3684E-01     55.73
  125.00    345.00     -4.42   -11.04    -3.57      0.0000    -25.04 LINEAR  2.9907E-01   -124.35  1.3971E-01     55.65
  130.00    345.00     -3.24   -10.84    -2.55      0.0000    -22.63 LINEAR  3.4262E-01   -124.43  1.4282E-01     55.57
  135.00    345.00     -2.22   -10.65    -1.64      0.0000    -20.75 LINEAR  3.8549E-01   -124.52  1.4608E-01     55.48
  140.00    345.00     -1.33   -10.45    -0.83      0.0000    -19.28 LINEAR  4.2708E-01   -124.60  1.4938E-01     55.40
  145.00    345.00     -0.56   -10.27    -0.12      0.0000    -18.11 LINEAR  4.6664E-01   -124.67  1.5264E-01     55.33
  150.00    345.00      0.10   -10.09     0.49      0.0000    -17.19 LINEAR  5.0336E-01   -124.74  1.5574E-01     55.26
  155.00    345.00      0.65    -9.94     1.01      0.0000    -16.47 LINEAR  5.3637E-01   -124.80  1.5858E-01     55.20
  160.00    345.00      1.10    -9.80     1.44      0.0000    -15.92 LINEAR  5.6482E-01   -124.86  1.6106E-01     55.14
  165.00    345.00      1.45    -9.69     1.77      0.0000    -15.50 LINEAR  5.8791E-01   -124.90  1.6309E-01     55.10
  170.00    345.00      1.69    -9.61     2.00      0.0000    -15.22 LINEAR  6.0494E-01   -124.93  1.6459E-01     55.07
  175.00    345.00      1.84    -9.56     2.15      0.0000    -15.05 LINEAR  6.1538E-01   -124.95  1.6552E-01     55.05
  180.00    345.00      1.89    -9.55     2.19      0.0000    -15.00 LINEAR  6.1890E-01   -124.95  1.6583E-01     55.05
    0.00    350.00      2.06   -13.01     2.19      0.0000     10.00 LINEAR  6.3100E-01     55.05  1.1126E-01     55.05
    5.00    350.00      2.01   -13.03     2.14      0.0000     10.04 LINEAR  6.2737E-01     55.05  1.1104E-01     55.05
   10.00    350.00      1.86   -13.08     2.00      0.0000     10.15 LINEAR  6.1658E-01     55.07  1.1040E-01     55.07
   15.00    350.00      1.61   -13.16     1.75      0.0000     10.35 LINEAR  5.9900E-01     55.10  1.0935E-01     55.10
   20.00    350.00      1.26   -13.28     1.41      0.0000     10.63 LINEAR  5.7519E-01     55.15  1.0793E-01     55.15
   25.00    350.00      0.80   -13.42     0.96      0.0000     11.01 LINEAR  5.4588E-01     55.20  1.0620E-01     55.20
   30.00    350.00      0.24   -13.58     0.42      0.0000     11.51 LINEAR  5.1191E-01     55.27  1.0423E-01     55.27
   35.00    350.00     -0.42   -13.76    -0.22      0.0000     12.15 LINEAR  4.7419E-01     55.34  1.0207E-01     55.34
   40.00    350.00     -1.20   -13.96    -0.97      0.0000     12.96 LINEAR  4.3361E-01     55.42  9.9807E-02     55.42
   45.00    350.00     -2.10   -14.16    -1.83      0.0000     14.00 LINEAR  3.9103E-01     55.50  9.7508E-02     55.50
   50.00    350.00     -3.13   -14.36    -2.81      0.0000     15.34 LINEAR  3.4721E-01     55.59  9.5245E-02     55.59
   55.00    350.00     -4.32   -14.56    -3.92      0.0000     17.09 LINEAR  3.0280E-01     55.67  9.3086E-02     55.67
   60.00    350.00     -5.70   -14.75    -5.19      0.0000     19.43 LINEAR  2.5830E-01     55.76  9.1091E-02     55.76
   65.00    350.00     -7.33   -14.92    -6.63      0.0000     22.65 LINEAR  2.1406E-01     55.83  8.9313E-02     55.83
   70.00    350.00     -9.32   -15.07    -8.29      0.0000     27.27 LINEAR  1.7030E-01     55.90  8.7797E-02     55.90
   75.00    350.00    -11.86   -15.19   -10.20      0.0000     34.27 LINEAR  1.2709E-01     55.96  8.6580E-02     55.96
   80.00    350.00    -15.41   -15.28   -12.34      0.0000     45.44 LINEAR  8.4389E-02     56.00  8.5691E-02     56.00
   85.00    350.00    -21.46   -15.34   -14.39      0.0000     63.70 LINEAR  4.2088E-02     56.02  8.5150E-02     56.02
   90.00    350.00   -999.99   -15.35   -15.35      0.0000    -90.00 LINEAR  2.4592E-12   -123.97  8.4968E-02     56.03
   95.00    350.00    -21.46   -15.34   -14.39      0.0000    -63.70 LINEAR  4.2088E-02   -123.98  8.5150E-02     56.02
  100.00    350.00    -15.41   -15.28   -12.34      0.0000    -45.44 LINEAR  8.4389E-02   -124.00  8.5691E-02     56.00
  105.00    350.00    -11.86   -15.19   -10.20      0.0000    -34.27 LINEAR  1.2709E-01   -124.04  8.6580E-02     55.96
  110.00    350.00     -9.32   -15.07    -8.29      0.0000    -27.27 LINEAR  1.7030E-01   -124.10  8.7797E-02     55.90
  115.00    350.00     -7.33   -14.92    -6.63      0.0000    -22.65 LINEAR  2.1406E-01   -124.17  8.9313E-02     55.83
  120.00    350.00     -5.70   -14.75    -5.19      0.0000    -19.43 LINEAR  2.5830E-01   -124.24  9.1091E-02     55.76
  125.00    350.00     -4.32   -14.56    -3.92      0.0000    -17.09 LINEAR  3.0280E-01   -124.33  9.3086E-02     55.67
  130.00    350.00     -3.13   -14.36    -2.81      0.0000    -15.34 LINEAR  3.4721E-01   -124.41  9.5245E-02     55.59
  135.00    350.00     -2.10   -14.16    -1.83      0.0000    -14.00 LINEAR  3.9103E-01   -124.50  9.7508E-02     55.50
  140.00    350.00     -1.20   -13.96    -0.97      0.0000    -12.96 LINEAR  4.3361E-01   -124.58  9.9807E-02     55.42
  145.00    350.00     -0.42   -13.76    -0.22      0.0000    -12.15 LINEAR  4.7419E-01   -124.66  1.0207E-01     55.34
  150.00    350.00      0.24   -13.58     0.42      0.0000    -11.51 LINEAR  5.1191E-01   -124.73  1.0423E-01     55.27
  155.00    350.00      0.80   -13.42     0.96      0.0000    -11.01 LINEAR  5.4588E-01   -124.80  1.0620E-01     55.20
  160.00    350.00      1.26   -13.28     1.41      0.0000    -10.63 LINEAR  5.7519E-01   -124.85  1.0793E-01     55.15
  165.00    350.00      1.61   -13.16     1.75      0.0000    -10.35 LINEAR  5.9900E-01   -124.90  1.0935E-01     55.10
  170.00    350.00      1.86   -13.08     2.00      0.0000    -10.15 LINEAR  6.1658E-01   -124.93  1.1040E-01     55.07
  175.00    350.00      2.01   -13.03     2.14      0.0000    -10.04 LINEAR  6.2737E-01   -124.95  1.1104E-01     55.05
  180.00    350.00      2.06   -13.01     2.19      0.0000    -10.00 LINEAR  6.3100E-01   -124.95  1.1126E-01     55.05
    0.00    355.00      2.16   -19.00     2.19      0.0000      5.00 LINEAR  6.3830E-01     55.05  5.5844E-02     55.05
    5.00    355.00      2.11   -19.02     2.14      0.0000      5.02 LINEAR  6.3459E-01     55.05  5.5732E-02     55.05
   10.00    355.00      1.96   -19.07     1.99      0.0000      5.08 LINEAR  6.2360E-01     55.07  5.5399E-02     55.07
   15.00    355.00      1.70   -19.15     1.74      0.0000      5.18 LINEAR  6.0568E-01     55.11  5.4860E-02     55.11
   20.00    355.00      1.35   -19.27     1.39      0.0000      5.32 LINEAR  5.8143E-01     55.15  5.4133E-02     55.15
   25.00    355.00      0.89   -19.41     0.93      0.0000      5.51 LINEAR  5.5159E-01     55.21  5.3247E-02     55.21
   30.00    355.00      0.33   -19.58     0.37      0.0000      5.77 LINEAR  5.1704E-01     55.27  5.2233E-02     55.27
   35.00    355.00     -0.34   -19.77    -0.29      0.0000      6.10 LINEAR  4.7869E-01     55.35  5.1126E-02     55.35
   40.00    355.00     -1.12   -19.97    -1.06      0.0000      6.52 LINEAR  4.3749E-01     55.43  4.9965E-02     55.43
   45.00    355.00     -2.02   -20.17    -1.96      0.0000      7.05 LINEAR  3.9431E-01     55.51  4.8787E-02     55.51
   50.00    355.00     -3.06   -20.38    -2.98      0.0000      7.75 LINEAR  3.4993E-01     55.60  4.7628E-02     55.60
   55.00    355.00     -4.25   -20.59    -4.15      0.0000      8.67 LINEAR  3.0500E-01     55.69  4.6522E-02     55.69
   60.00    355.00     -5.64   -20.78    -5.51      0.0000      9.92 LINEAR  2.6004E-01     55.78  4.5500E-02     55.78
   65.00    355.00     -7.28   -20.96    -7.09      0.0000     11.70 LINEAR  2.1540E-01     55.85  4.4590E-02     55.85
   70.00    355.00     -9.27   -21.11    -8.99      0.0000     14.35 LINEAR  1.7128E-01     55.92  4.3815E-02     55.92
   75.00    355.00    -11.81   -21.23   -11.34      0.0000     18.68 LINEAR  1.2778E-01     55.98  4.3192E-02     55.98
   80.00    355.00    -15.37   -21.32   -14.39      0.0000     26.74 LINEAR  8.4826E-02     56.02  4.2737E-02     56.02
   85.00    355.00    -21.41   -21.38   -18.39      0.0000     45.11 LINEAR  4.2299E-02     56.05  4.2461E-02     56.05
   90.00    355.00   -999.99   -21.40   -21.40      0.0000    -90.00 LINEAR  2.4714E-12   -123.94  4.2368E-02     56.06
   95.00    355.00    -21.41   -21.38   -18.39      0.0000    -45.11 LINEAR  4.2299E-02   -123.95  4.2461E-02     56.05
  100.00    355.00    -15.37   -21.32   -14.39      0.0000    -26.74 LINEAR  8.4826E-02   -123.98  4.2737E-02     56.02
  105.00    355.00    -11.81   -21.23   -11.34      0.0000    -18.68 LINEAR  1.2778E-01   -124.02  4.3192E-02     55.98
  110.00    355.00     -9.27   -21.11    -8.99      0.0000    -14.35 LINEAR  1.7128E-01   -124.08  4.3815E-02     55.92
  115.00    355.00     -7.28   -20.96    -7.09      0.0000    -11.70 LINEAR  2.1540E-01   -124.15  4.4590E-02     55.85
  120.00    355.00     -5.64   -20.78    -5.51      0.0000     -9.92 LINEAR  2.6004E-01   -124.22  4.5500E-02     55.78
  125.00    355.00     -4.25   -20.59    -4.15      0.0000     -8.67 LINEAR  3.0500E-01   -124.31  4.6522E-02     55.69
  130.00    355.00     -3.06   -20.38    -2.98      0.0000     -7.75 LINEAR  3.4993E-01   -124.40  4.7628E-02     55.60
  135.00    355.00     -2.02   -20.17    -1.96      0.0000     -7.05 LINEAR  3.9431E-01   -124.49  4.8787E-02     55.51
  140.00    355.00     -1.12   -19.97    -1.06      0.0000     -6.52 LINEAR  4.3749E-01   -124.57  4.9965E-02     55.43
  145.00    355.00     -0.34   -19.77    -0.29      0.0000     -6.10 LINEAR  4.7869E-01   -124.65  5.1126E-02     55.35
  150.00    355.00      0.33   -19.58     0.37      0.0000     -5.77 LINEAR  5.1704E-01   -124.73  5.2233E-02     55.27
  155.00    355.00      0.89   -19.41     0.93      0.0000     -5.51 LINEAR  5.5159E-01   -124.79  5.3247E-02     55.21
  160.00    355.00      1.35   -19.27     1.39      0.0000     -5.32 LINEAR  5.8143E-01   -124.85  5.4133E-02     55.15
  165.00    355.00      1.70   -19.15     1.74      0.0000     -5.18 LINEAR  6.0568E-01   -124.89  5.4860E-02     55.11
  170.00    355.00      1.96   -19.07     1.99      0.0000     -5.08 LINEAR  6.2360E-01   -124.93  5.5399E-02     55.07
  175.00    355.00      2.11   -19.02     2.14      0.0000     -5.02 LINEAR  6.3459E-01   -124.95  5.5732E-02     55.05
  180.00    355.00      2.16   -19.00     2.19      0.0000     -5.00 LINEAR  6.3830E-01   -124.95  5.5844E-02     55.05
    0.00    360.00      2.19  -999.99     2.19      0.0000     -0.00 LINEAR  6.4074E-01     55.05  1.3080E-11   -124.95
    5.00    360.00      2.14  -999.99     2.14      0.0000     -0.00 LINEAR  6.3701E-01     55.05  1.3053E-11   -124.95
   10.00    360.00      1.99  -999.99     1.99      0.0000     -0.00 LINEAR  6.2594E-01     55.07  1.2975E-11   -124.93
   15.00    360.00      1.74  -999.99     1.74      0.0000     -0.00 LINEAR  6.0791E-01     55.11  1.2848E-11   -124.89
   20.00    360.00      1.38  -999.99     1.38      0.0000     -0.00 LINEAR  5.8351E-01     55.15  1.2676E-11   -124.85
   25.00    360.00      0.92  -999.99     0.92      0.0000     -0.00 LINEAR  5.5350E-01     55.21  1.2467E-11   -124.79
   30.00    360.00      0.36  -999.99     0.36      0.0000     -0.00 LINEAR  5.1874E-01     55.27  1.2228E-11   -124.73
   35.00    360.00     -0.31  -999.99    -0.31      0.0000     -0.00 LINEAR  4.8019E-01     55.35  1.1967E-11   -124.65
   40.00    360.00     -1.10  -999.99    -1.10      0.0000     -0.00 LINEAR  4.3878E-01     55.43  1.1693E-11   -124.57
   45.00    360.00     -2.00  -999.99    -2.00      0.0000     -0.00 LINEAR  3.9540E-01     55.52  1.1415E-11   -124.48
   50.00    360.00     -3.04  -999.99    -3.04      0.0000     -0.00 LINEAR  3.5082E-01     55.61  1.1141E-11   -124.39
   55.00    360.00     -4.23  -999.99    -4.23      0.0000     -0.00 LINEAR  3.0572E-01     55.70  1.0881E-11   -124.30
   60.00    360.00     -5.62  -999.99    -5.62      0.0000     -0.00 LINEAR  2.6061E-01     55.78  1.0640E-11   -124.22
   65.00    360.00     -7.26  -999.99    -7.26      0.0000     -0.00 LINEAR  2.1583E-01     55.86  1.0425E-11   -124.14
   70.00    360.00     -9.25  -999.99    -9.25      0.0000     -0.00 LINEAR  1.7161E-01     55.93  1.0242E-11   -124.07
   75.00    360.00    -11.80  -999.99   -11.80      0.0000     -0.00 LINEAR  1.2800E-01     55.99  1.0096E-11   -124.01
   80.00    360.00    -15.35  -999.99   -15.35      0.0000     -0.00 LINEAR  8.4968E-02     56.03  9.9886E-12   -123.97
   85.00    360.00    -21.40  -999.99   -21.40      0.0000     -0.00 LINEAR  4.2368E-02     56.06  9.9233E-12   -123.94
   90.00    360.00   -999.99  -999.99  -999.99      0.0000      0.00         2.4754E-12   -123.93  9.9014E-12   -123.93
   95.00    360.00    -21.40  -999.99   -21.40      0.0000      0.00 LINEAR  4.2368E-02   -123.94  9.9233E-12   -123.94
  100.00    360.00    -15.35  -999.99   -15.35      0.0000      0.00 LINEAR  8.4968E-02   -123.97  9.9886E-12   -123.97
  105.00    360.00    -11.80  -999.99   -11.80      0.0000      0.00 LINEAR  1.2800E-01   -124.01  1.0096E-11   -124.01
  110.00    360.00     -9.25  -999.99    -9.25      0.0000      0.00 LINEAR  1.7161E-01   -124.07  1.0242E-11   -124.07
  115.00    360.00     -7.26  -999.99    -7.26      0.0000      0.00 LINEAR  2.1583E-01   -124.14  1.0425E-11   -124.14
  120.00    360.00     -5.62  -999.99    -5.62      0.0000      0.00 LINEAR  2.6061E-01   -124.22  1.0640E-11   -124.22
  125.00    360.00     -4.23  -999.99    -4.23      0.0000      0.00 LINEAR  3.0572E-01   -124.30  1.0881E-11   -124.30
  130.00    360.00     -3.04  -999.99    -3.04      0.0000      0.00 LINEAR  3.5082E-01   -124.39  1.1141E-11   -124.39
  135.00    360.00     -2.00  -999.99    -2.00      0.0000      0.00 LINEAR  3.9540E-01   -124.48  1.1415E-11   -124.48
  140.00    360.00     -1.10  -999.99    -1.10      0.0000      0.00 LINEAR  4.3878E-01   -124.57  1.1693E-11   -124.57
  145.00    360.00     -0.31  -999.99    -0.31      0.0000      0.00 LINEAR  4.8019E-01   -124.65  1.1967E-11   -124.65
  150.00    360.00      0.36  -999.99     0.36      0.0000      0.00 LINEAR  5.1874E-01   -124.73  1.2228E-11   -124.73
  155.00    360.00      0.92  -999.99     0.92      0.0000      0.00 LINEAR  5.5350E-01   -124.79  1.2467E-11   -124.79
  160.00    360.00      1.38  -999.99     1.38      0.0000      0.00 LINEAR  5.8351E-01   -124.85  1.2676E-11   -124.85
  165.00    360.00      1.74  -999.99     1.74      0.0000      0.00 LINEAR  6.0791E-01   -124.89  1.2848E-11   -124.89
  170.00    360.00      1.99  -999.99     1.99      0.0000      0.00 LINEAR  6.2594E-01   -124.93  1.2975E-11   -124.93
  175.00    360.00      2.14  -999.99     2.14      0.0000      0.00 LINEAR  6.3701E-01   -124.95  1.3053E-11   -124.95
  180.00    360.00      2.19  -999.99     2.19      0.0000      0.00 LINEAR  6.4074E-01   -124.95  1.3080E-11   -124.95








*****  DATA CARD N0.   4 EN   0     0     0     0  0.00000E+00  0.00000E+00  0.00000E+00  0.00000E+00  0.00000E+00  0.00000E+00

  TOTAL RUN TIME: 20 msec